MODPATH_PATHLINE_FILE 6 0                                                       
 1   0.0000000E+00
END HEADER
         1     1    -1     2   0.1826000E+04   0.6250000E+03   0.6375000E+04   0.3500000E+02    1   15    3  1  0.5000000E+00   0.5000000E+00   0.1000000E+01     1
         1     1    -1     3   0.1826000E+04   0.6250000E+03   0.6375000E+04   0.3500000E+02    1   15    3  1  0.5000000E+00   0.5000000E+00   0.1000000E+01     2
         1     1    -1     3   0.2191010E+04   0.6515861E+03   0.6250000E+04   0.3497541E+02    1   16    3  1  0.6063445E+00   0.1000000E+01   0.9990000E+00     2
         1     1    -1     3   0.2783641E+04   0.6689192E+03   0.6000000E+04   0.3497422E+02    1   17    3  1  0.6756766E+00   0.1000000E+01   0.9990000E+00     2
         1     1    -1     3   0.3264221E+04   0.6711461E+03   0.5750000E+04   0.3497192E+02    1   18    3  1  0.6845846E+00   0.1000000E+01   0.9990000E+00     2
         1     1    -1     3   0.3667711E+04   0.6805150E+03   0.5500000E+04   0.3497106E+02    1   19    3  1  0.7220600E+00   0.1000000E+01   0.9990000E+00     2
         1     1    -1     3   0.3999709E+04   0.6910613E+03   0.5250000E+04   0.3496899E+02    1   20    3  1  0.7642451E+00   0.1000000E+01   0.9990000E+00     2
         1     1    -1     3   0.4317613E+04   0.7145781E+03   0.5000000E+04   0.3497288E+02    1   21    3  1  0.8583122E+00   0.1000000E+01   0.9990000E+00     2
         1     1    -1     3   0.4574947E+04   0.7348419E+03   0.4750000E+04   0.3496973E+02    1   22    3  1  0.9393678E+00   0.1000000E+01   0.9990000E+00     2
         1     1    -1     3   0.4747652E+04   0.7500000E+03   0.4583958E+04   0.3497328E+02    1   22    4  1  0.0000000E+00   0.3358345E+00   0.9990000E+00     2
         1     1    -1     3   0.4808213E+04   0.7558427E+03   0.4500000E+04   0.3497364E+02    1   23    4  1  0.2337056E-01   0.1000000E+01   0.9990000E+00     2
         1     1    -1     3   0.5016664E+04   0.8701775E+03   0.4250000E+04   0.3497438E+02    1   24    4  1  0.4807101E+00   0.1000000E+01   0.9990000E+00     2
         1     1    -1     3   0.5203778E+04   0.1000000E+04   0.4078540E+04   0.3497601E+02    1   24    5  1  0.0000000E+00   0.3141583E+00   0.9990000E+00     2
         1     1    -1     3   0.5283702E+04   0.1071342E+04   0.4000000E+04   0.3497611E+02    1   25    5  1  0.2853675E+00   0.1000000E+01   0.9990000E+00     2
         1     1    -1     3   0.5493479E+04   0.1250000E+04   0.3818170E+04   0.3497024E+02    1   25    6  1  0.0000000E+00   0.2726788E+00   0.9990000E+00     2
         1     1    -1     3   0.5627123E+04   0.1354236E+04   0.3750000E+04   0.3496917E+02    1   26    6  1  0.4169457E+00   0.1000000E+01   0.9990000E+00     2
         1     1    -1     3   0.5822525E+04   0.1500000E+04   0.3645803E+04   0.3497116E+02    1   26    7  1  0.0000000E+00   0.5832108E+00   0.9990000E+00     2
         1     1    -1     3   0.6096687E+04   0.1708260E+04   0.3500000E+04   0.3496951E+02    1   27    7  1  0.8330399E+00   0.1000000E+01   0.9990000E+00     2
         1     1    -1     3   0.6157744E+04   0.1750000E+04   0.3466645E+04   0.3496950E+02    1   27    8  1  0.0000000E+00   0.8665811E+00   0.9990000E+00     2
         1     1    -1     3   0.6515407E+04   0.1995673E+04   0.3250000E+04   0.3496843E+02    1   28    8  1  0.9826932E+00   0.1000000E+01   0.9990000E+00     2
         1     1    -1     3   0.6521844E+04   0.2000000E+04   0.3246059E+04   0.3496771E+02    1   28    9  1  0.0000000E+00   0.9842346E+00   0.9990000E+00     2
         1     1    -1     3   0.6879700E+04   0.2250000E+04   0.3036881E+04   0.3496698E+02    1   28   10  1  0.0000000E+00   0.1475244E+00   0.9990000E+00     2
         1     1    -1     3   0.6940839E+04   0.2294643E+04   0.3000000E+04   0.3496684E+02    1   29   10  1  0.1785710E+00   0.1000000E+01   0.9990000E+00     2
         1     1    -1     3   0.7198026E+04   0.2500000E+04   0.2844756E+04   0.3496518E+02    1   29   11  1  0.0000000E+00   0.3790234E+00   0.9990000E+00     2
         1     1    -1     3   0.7364979E+04   0.2633793E+04   0.2750000E+04   0.3496592E+02    1   30   11  1  0.5351706E+00   0.1000000E+01   0.9990000E+00     2
         1     1    -1     3   0.7511659E+04   0.2750000E+04   0.2663396E+04   0.3496557E+02    1   30   12  1  0.0000000E+00   0.6535822E+00   0.9990000E+00     2
         1     1    -1     3   0.7768885E+04   0.2959323E+04   0.2500000E+04   0.3496569E+02    1   31   12  1  0.8372906E+00   0.1000000E+01   0.9990000E+00     2
         1     1    -1     3   0.7812728E+04   0.3000000E+04   0.2471719E+04   0.3496565E+02    1   31   13  1  0.0000000E+00   0.8868737E+00   0.9990000E+00     2
         1     1    -1     3   0.8065668E+04   0.3250000E+04   0.2255075E+04   0.3496559E+02    1   31   14  1  0.0000000E+00   0.2030219E-01   0.9990000E+00     2
         1     1    -1     3   0.8071755E+04   0.3256439E+04   0.2250000E+04   0.3496554E+02    1   32   14  1  0.2575606E-01   0.1000000E+01   0.9990000E+00     2
         1     1    -1     3   0.8318370E+04   0.3500000E+04   0.2044707E+04   0.3496557E+02    1   32   15  1  0.0000000E+00   0.1788263E+00   0.9990000E+00     2
         1     1    -1     3   0.8361768E+04   0.3530990E+04   0.2000000E+04   0.3496571E+02    1   33   15  1  0.1239598E+00   0.1000000E+01   0.9990000E+00     2
         1     1    -1     3   0.8588921E+04   0.3574498E+04   0.1750000E+04   0.3496569E+02    1   34   15  1  0.2979919E+00   0.1000000E+01   0.9990000E+00     2
         1     1    -1     3   0.8800169E+04   0.3606625E+04   0.1500000E+04   0.3496559E+02    1   35   15  1  0.4265009E+00   0.1000000E+01   0.9990000E+00     2
         1     1    -1     3   0.9021263E+04   0.3633720E+04   0.1250000E+04   0.3496525E+02    1   36   15  1  0.5348809E+00   0.1000000E+01   0.9990000E+00     2
         1     1    -1     3   0.9309265E+04   0.3652246E+04   0.1000000E+04   0.3496507E+02    1   37   15  1  0.6089845E+00   0.1000000E+01   0.9990000E+00     2
         1     1    -1     3   0.9481956E+04   0.3667209E+04   0.7500000E+03   0.3496537E+02    1   38   15  1  0.6688351E+00   0.1000000E+01   0.9990000E+00     2
         1     1    -1     3   0.9481956E+04   0.3667209E+04   0.7500000E+03   0.3496537E+02    1   38   15  1  0.6688351E+00   0.1000000E+01   0.9990000E+00     2
