MODPATH_PATHLINE_FILE 6 0                                                       
 1   0.000000000000000E+00
END HEADER
         1     1    -1     2   0.182600000000000E+04   0.625000000000000E+03   0.637500000000000E+04   0.350000000000000E+02    1   15    3  1  0.5000000E+00   0.5000000E+00   0.1000000E+01     1
         1     1    -1     3   0.182600000000000E+04   0.625000000000000E+03   0.637500000000000E+04   0.350000000000000E+02    1   15    3  1  0.5000000E+00   0.5000000E+00   0.1000000E+01     2
         1     1    -1     3   0.214762644845804E+04   0.633615564757088E+03   0.625000000000000E+04   0.349754090000000E+02    1   16    3  1  0.5344623E+00   0.1000000E+01   0.9990000E+00     2
         1     1    -1     3   0.267738963476907E+04   0.635097650643062E+03   0.600000000000000E+04   0.349742241000000E+02    1   17    3  1  0.5403906E+00   0.1000000E+01   0.9990000E+00     2
         1     1    -1     3   0.311667787180695E+04   0.631274183516888E+03   0.575000000000000E+04   0.349719156000000E+02    1   18    3  1  0.5250967E+00   0.1000000E+01   0.9990000E+00     2
         1     1    -1     3   0.349781607955193E+04   0.635624323575844E+03   0.550000000000000E+04   0.349710632000000E+02    1   19    3  1  0.5424973E+00   0.1000000E+01   0.9990000E+00     2
         1     1    -1     3   0.381750169117792E+04   0.642113446539914E+03   0.525000000000000E+04   0.349689943000000E+02    1   20    3  1  0.5684538E+00   0.1000000E+01   0.9990000E+00     2
         1     1    -1     3   0.411689091288054E+04   0.654944460188751E+03   0.500000000000000E+04   0.349728784000000E+02    1   21    3  1  0.6197778E+00   0.1000000E+01   0.9990000E+00     2
         1     1    -1     3   0.435571699504517E+04   0.676811670314088E+03   0.475000000000000E+04   0.349697303000000E+02    1   22    3  1  0.7072467E+00   0.1000000E+01   0.9990000E+00     2
         1     1    -1     3   0.460078787467875E+04   0.712916797910798E+03   0.450000000000000E+04   0.349704725000000E+02    1   23    3  1  0.8516672E+00   0.1000000E+01   0.9990000E+00     2
         1     1    -1     3   0.468996208144512E+04   0.750000000000000E+03   0.440554596471939E+04   0.349736354000000E+02    1   23    4  1  0.0000000E+00   0.6221839E+00   0.9990000E+00     2
         1     1    -1     3   0.483811523807617E+04   0.831126847496225E+03   0.425000000000000E+04   0.349743852000000E+02    1   24    4  1  0.3245074E+00   0.1000000E+01   0.9990000E+00     2
         1     1    -1     3   0.505845791739693E+04   0.100000000000000E+04   0.405611403528986E+04   0.349760120000000E+02    1   24    5  1  0.0000000E+00   0.2244561E+00   0.9990000E+00     2
         1     1    -1     3   0.512604610654985E+04   0.106749935360015E+04   0.400000000000000E+04   0.349761070000000E+02    1   25    5  1  0.2699974E+00   0.1000000E+01   0.9990000E+00     2
         1     1    -1     3   0.531124217557076E+04   0.125000000000000E+04   0.386330149600639E+04   0.349702416000000E+02    1   25    6  1  0.0000000E+00   0.4532060E+00   0.9990000E+00     2
         1     1    -1     3   0.558273341942635E+04   0.150000000000000E+04   0.377580311541221E+04   0.349707991000000E+02    1   25    7  1  0.0000000E+00   0.1032125E+00   0.9990000E+00     2
         1     1    -1     3   0.572674019440295E+04   0.163435672544314E+04   0.375000000000000E+04   0.349711618000000E+02    1   26    7  1  0.5374269E+00   0.1000000E+01   0.9990000E+00     2
         1     1    -1     3   0.586127865350503E+04   0.175000000000000E+04   0.372327976436888E+04   0.349690361000000E+02    1   26    8  1  0.0000000E+00   0.8931191E+00   0.9990000E+00     2
         1     1    -1     3   0.616855844528417E+04   0.200000000000000E+04   0.366940310478822E+04   0.349684598000000E+02    1   26    9  1  0.0000000E+00   0.6776124E+00   0.9990000E+00     2
         1     1    -1     3   0.645657542175812E+04   0.225000000000000E+04   0.362864557266941E+04   0.349677051000000E+02    1   26   10  1  0.0000000E+00   0.5145823E+00   0.9990000E+00     2
         1     1    -1     3   0.687650987370258E+04   0.250000000000000E+04   0.358293679565579E+04   0.349654493500000E+02    1   26   11  1  0.0000000E+00   0.3317472E+00   0.9990000E+00     2
         1     1    -1     3   0.738530527177285E+04   0.270364036667831E+04   0.350000000000000E+04   0.349653049500000E+02    1   27   11  1  0.8145615E+00   0.1000000E+01   0.9990000E+00     2
         1     1    -1     3   0.746842077586173E+04   0.275000000000000E+04   0.348740927975135E+04   0.349655415900000E+02    1   27   12  1  0.0000000E+00   0.9496371E+00   0.9990000E+00     2
         1     1    -1     3   0.789856820817503E+04   0.300000000000000E+04   0.338945028433785E+04   0.349654242700000E+02    1   27   13  1  0.0000000E+00   0.5578011E+00   0.9990000E+00     2
         1     1    -1     3   0.830274495347953E+04   0.325000000000000E+04   0.327519478560523E+04   0.349654677500000E+02    1   27   14  1  0.0000000E+00   0.1007791E+00   0.9990000E+00     2
         1     1    -1     3   0.837388994371463E+04   0.329585245444382E+04   0.325000000000000E+04   0.349651862100000E+02    1   28   14  1  0.1834098E+00   0.1000000E+01   0.9990000E+00     2
         1     1    -1     3   0.863374267165569E+04   0.350000000000000E+04   0.316182503547469E+04   0.349652102900000E+02    1   28   15  1  0.0000000E+00   0.6473001E+00   0.9990000E+00     2
         1     1    -1     3   0.926267212755659E+04   0.365352960841236E+04   0.300000000000000E+04   0.349656895600000E+02    1   29   15  1  0.6141184E+00   0.1000000E+01   0.9990000E+00     2
         1     1    -1     3   0.104504362388542E+05   0.366605577594408E+04   0.275000000000000E+04   0.349650139450000E+02    1   30   15  1  0.6642231E+00   0.1000000E+01   0.9990000E+00     2
         1     1    -1     3   0.112257687943885E+05   0.366424203995371E+04   0.250000000000000E+04   0.349654124600000E+02    1   31   15  1  0.6569682E+00   0.1000000E+01   0.9990000E+00     2
         1     1    -1     3   0.122625578945720E+05   0.365257414221391E+04   0.225000000000000E+04   0.349655694900000E+02    1   32   15  1  0.6102966E+00   0.1000000E+01   0.9990000E+00     2
         1     1    -1     3   0.135911627378014E+05   0.364824062769808E+04   0.200000000000000E+04   0.349657109100000E+02    1   33   15  1  0.5929625E+00   0.1000000E+01   0.9990000E+00     2
         1     1    -1     3   0.144596157930860E+05   0.363217139099862E+04   0.175000000000000E+04   0.349656923200000E+02    1   34   15  1  0.5286856E+00   0.1000000E+01   0.9990000E+00     2
         1     1    -1     3   0.152749813298635E+05   0.361810671853687E+04   0.150000000000000E+04   0.349655878800000E+02    1   35   15  1  0.4724269E+00   0.1000000E+01   0.9990000E+00     2
         1     1    -1     3   0.162128676995141E+05   0.363121015610806E+04   0.125000000000000E+04   0.349652502700000E+02    1   36   15  1  0.5248406E+00   0.1000000E+01   0.9990000E+00     2
         1     1    -1     3   0.177484442815956E+05   0.364389165910838E+04   0.100000000000000E+04   0.349650649440000E+02    1   37   15  1  0.5755666E+00   0.1000000E+01   0.9990000E+00     2
         1     1    -1     3   0.186791497471911E+05   0.365455925455986E+04   0.750000000000000E+03   0.349653715100000E+02    1   38   15  1  0.6182370E+00   0.1000000E+01   0.9990000E+00     2
         1     1    -1     3   0.186791497471911E+05   0.365455925455986E+04   0.750000000000000E+03   0.349653715100000E+02    1   38   15  1  0.6182370E+00   0.1000000E+01   0.9990000E+00     2
