# RCH for MODFLOW, generated by Flopy.
         2         0
         1        -1 # Stress period 1
CONSTANT                   1.3824000E-04                   #rech_1
         1        -1 # Stress period 2
CONSTANT                   9.0000000E-05                   #rech_2
         1        -1 # Stress period 2
CONSTANT                   9.0000000E-05                   #rech_2
