ptf ~
# RCH for MODFLOW, generated by Flopy.
         2         0
         1        -1 # Stress period 1
CONSTANT                  ~       rch1 ~                   #rech_1
         1        -1 # Stress period 2
CONSTANT                  ~       rch2 ~                   #rech_2
         1        -1 # Stress period 2
CONSTANT                  ~       rch2 ~                   #rech_2
