pcf
* control data
             restart          estimation
        72       643         2         0         6         0
         2         3              single               point         1         0         0            noobsreref
   2.000000E+01  -3.000000E+00   3.000000E-01   1.000000E-02        -7       999          lamforgive        noderforgive
   1.000000E+01   1.000000E+01   1.000000E-03         0         0
   1.000000E-01         1   1.100000E+00               noaui          nosenreuse        noboundscale
        -1   1.000000E-02         3         3   1.000000E-02         3   0.000000E+00         1  -1.000000E+00
         0         0         0         0             jcosave          verboserec          jcosaveitn          reisaveitn          parsaveitn        noparsaverun
* parameter groups
pilotpt              relative    1.000000E-02  0                switch    2.000000E+00             parabolic    1.000000E-05    5.000000E-01               smaller
                 rch              relative    1.000000E-02  0                switch    2.000000E+00             parabolic    1.000000E-05    5.000000E-01               smaller
* parameter data
rch1                   log                factor    1.251112E-03    1.000000E-10    1.000000E+10                   rch    1.000000E+00    0.000000E+00          1
                rch2                   log                factor    9.358508E-05    1.000000E-10    1.000000E+10                   rch    1.000000E+00    0.000000E+00          1
               hkpp1                   log                factor    5.079521E+01    1.000000E-10    1.000000E+10               pilotpt    1.000000E+00    0.000000E+00          1
               hkpp2                   log                factor    3.420774E+01    1.000000E-10    1.000000E+10               pilotpt    1.000000E+00    0.000000E+00          1
               hkpp3                   log                factor    4.108288E+01    1.000000E-10    1.000000E+10               pilotpt    1.000000E+00    0.000000E+00          1
               hkpp4                   log                factor    1.784352E+01    1.000000E-10    1.000000E+10               pilotpt    1.000000E+00    0.000000E+00          1
               hkpp5                   log                factor    7.101179E+00    1.000000E-10    1.000000E+10               pilotpt    1.000000E+00    0.000000E+00          1
               hkpp6                   log                factor    2.688783E+01    1.000000E-10    1.000000E+10               pilotpt    1.000000E+00    0.000000E+00          1
               hkpp7                   log                factor    3.208148E+01    1.000000E-10    1.000000E+10               pilotpt    1.000000E+00    0.000000E+00          1
               hkpp8                   log                factor    7.610810E+00    1.000000E-10    1.000000E+10               pilotpt    1.000000E+00    0.000000E+00          1
               hkpp9                   log                factor    7.584928E+01    1.000000E-10    1.000000E+10               pilotpt    1.000000E+00    0.000000E+00          1
              hkpp10                   log                factor    1.469805E+01    1.000000E-10    1.000000E+10               pilotpt    1.000000E+00    0.000000E+00          1
              hkpp11                   log                factor    1.154765E+01    1.000000E-10    1.000000E+10               pilotpt    1.000000E+00    0.000000E+00          1
              hkpp12                   log                factor    2.487973E+01    1.000000E-10    1.000000E+10               pilotpt    1.000000E+00    0.000000E+00          1
              hkpp13                   log                factor    3.771198E+01    1.000000E-10    1.000000E+10               pilotpt    1.000000E+00    0.000000E+00          1
              hkpp14                   log                factor    5.798429E+02    1.000000E-10    1.000000E+10               pilotpt    1.000000E+00    0.000000E+00          1
              hkpp15                   log                factor    1.093366E+03    1.000000E-10    1.000000E+10               pilotpt    1.000000E+00    0.000000E+00          1
              hkpp16                   log                factor    4.562238E+01    1.000000E-10    1.000000E+10               pilotpt    1.000000E+00    0.000000E+00          1
              hkpp17                   log                factor    1.790128E+01    1.000000E-10    1.000000E+10               pilotpt    1.000000E+00    0.000000E+00          1
              hkpp18                   log                factor    3.561512E+01    1.000000E-10    1.000000E+10               pilotpt    1.000000E+00    0.000000E+00          1
              hkpp19                   log                factor    7.519253E+01    1.000000E-10    1.000000E+10               pilotpt    1.000000E+00    0.000000E+00          1
              hkpp20                   log                factor    6.357338E+01    1.000000E-10    1.000000E+10               pilotpt    1.000000E+00    0.000000E+00          1
              hkpp21                   log                factor    4.958776E+01    1.000000E-10    1.000000E+10               pilotpt    1.000000E+00    0.000000E+00          1
              hkpp22                   log                factor    7.439428E+00    1.000000E-10    1.000000E+10               pilotpt    1.000000E+00    0.000000E+00          1
              hkpp23                   log                factor    2.335485E+01    1.000000E-10    1.000000E+10               pilotpt    1.000000E+00    0.000000E+00          1
              hkpp24                   log                factor    7.420812E+01    1.000000E-10    1.000000E+10               pilotpt    1.000000E+00    0.000000E+00          1
              hkpp25                   log                factor    1.602240E+02    1.000000E-10    1.000000E+10               pilotpt    1.000000E+00    0.000000E+00          1
              hkpp26                   log                factor    1.466097E+02    1.000000E-10    1.000000E+10               pilotpt    1.000000E+00    0.000000E+00          1
              hkpp27                   log                factor    2.976132E+00    1.000000E-10    1.000000E+10               pilotpt    1.000000E+00    0.000000E+00          1
              hkpp28                   log                factor    2.027509E+01    1.000000E-10    1.000000E+10               pilotpt    1.000000E+00    0.000000E+00          1
              hkpp29                   log                factor    1.039697E+02    1.000000E-10    1.000000E+10               pilotpt    1.000000E+00    0.000000E+00          1
              hkpp30                   log                factor    3.956159E+02    1.000000E-10    1.000000E+10               pilotpt    1.000000E+00    0.000000E+00          1
              hkpp31                   log                factor    4.895594E+02    1.000000E-10    1.000000E+10               pilotpt    1.000000E+00    0.000000E+00          1
              hkpp32                   log                factor    3.864773E+02    1.000000E-10    1.000000E+10               pilotpt    1.000000E+00    0.000000E+00          1
              hkpp33                   log                factor    1.436126E+01    1.000000E-10    1.000000E+10               pilotpt    1.000000E+00    0.000000E+00          1
              hkpp34                   log                factor    8.548947E+01    1.000000E-10    1.000000E+10               pilotpt    1.000000E+00    0.000000E+00          1
              hkpp35                   log                factor    1.087610E+02    1.000000E-10    1.000000E+10               pilotpt    1.000000E+00    0.000000E+00          1
              hkpp36                   log                factor    5.737094E+01    1.000000E-10    1.000000E+10               pilotpt    1.000000E+00    0.000000E+00          1
              hkpp37                   log                factor    1.064089E+02    1.000000E-10    1.000000E+10               pilotpt    1.000000E+00    0.000000E+00          1
              hkpp38                   log                factor    1.928734E+01    1.000000E-10    1.000000E+10               pilotpt    1.000000E+00    0.000000E+00          1
              hkpp39                   log                factor    3.168493E+01    1.000000E-10    1.000000E+10               pilotpt    1.000000E+00    0.000000E+00          1
              hkpp40                   log                factor    7.845055E+01    1.000000E-10    1.000000E+10               pilotpt    1.000000E+00    0.000000E+00          1
              hkpp41                   log                factor    1.431726E+01    1.000000E-10    1.000000E+10               pilotpt    1.000000E+00    0.000000E+00          1
              hkpp42                   log                factor    4.374760E+01    1.000000E-10    1.000000E+10               pilotpt    1.000000E+00    0.000000E+00          1
              hkpp43                   log                factor    2.512119E+02    1.000000E-10    1.000000E+10               pilotpt    1.000000E+00    0.000000E+00          1
              hkpp44                   log                factor    2.992906E+01    1.000000E-10    1.000000E+10               pilotpt    1.000000E+00    0.000000E+00          1
              hkpp45                   log                factor    5.287158E+01    1.000000E-10    1.000000E+10               pilotpt    1.000000E+00    0.000000E+00          1
              hkpp46                   log                factor    3.087354E+01    1.000000E-10    1.000000E+10               pilotpt    1.000000E+00    0.000000E+00          1
              hkpp47                   log                factor    1.284587E+01    1.000000E-10    1.000000E+10               pilotpt    1.000000E+00    0.000000E+00          1
              hkpp48                   log                factor    9.379218E+01    1.000000E-10    1.000000E+10               pilotpt    1.000000E+00    0.000000E+00          1
              hkpp49                   log                factor    1.951454E+03    1.000000E-10    1.000000E+10               pilotpt    1.000000E+00    0.000000E+00          1
              hkpp50                   log                factor    3.938509E+01    1.000000E-10    1.000000E+10               pilotpt    1.000000E+00    0.000000E+00          1
              hkpp51                   log                factor    3.830621E+01    1.000000E-10    1.000000E+10               pilotpt    1.000000E+00    0.000000E+00          1
              hkpp52                   log                factor    1.863773E+01    1.000000E-10    1.000000E+10               pilotpt    1.000000E+00    0.000000E+00          1
              hkpp53                   log                factor    1.695832E+01    1.000000E-10    1.000000E+10               pilotpt    1.000000E+00    0.000000E+00          1
              hkpp54                   log                factor    4.139693E+01    1.000000E-10    1.000000E+10               pilotpt    1.000000E+00    0.000000E+00          1
              hkpp55                   log                factor    2.845957E+02    1.000000E-10    1.000000E+10               pilotpt    1.000000E+00    0.000000E+00          1
              hkpp56                   log                factor    4.374871E+01    1.000000E-10    1.000000E+10               pilotpt    1.000000E+00    0.000000E+00          1
              hkpp57                   log                factor    3.816728E+01    1.000000E-10    1.000000E+10               pilotpt    1.000000E+00    0.000000E+00          1
              hkpp58                   log                factor    2.853553E+01    1.000000E-10    1.000000E+10               pilotpt    1.000000E+00    0.000000E+00          1
              hkpp59                   log                factor    2.492934E+01    1.000000E-10    1.000000E+10               pilotpt    1.000000E+00    0.000000E+00          1
              hkpp60                   log                factor    2.544446E+01    1.000000E-10    1.000000E+10               pilotpt    1.000000E+00    0.000000E+00          1
              hkpp61                   log                factor    3.870010E+01    1.000000E-10    1.000000E+10               pilotpt    1.000000E+00    0.000000E+00          1
              hkpp62                   log                factor    5.050288E+01    1.000000E-10    1.000000E+10               pilotpt    1.000000E+00    0.000000E+00          1
              hkpp63                   log                factor    4.822951E+01    1.000000E-10    1.000000E+10               pilotpt    1.000000E+00    0.000000E+00          1
              hkpp64                   log                factor    4.966955E+01    1.000000E-10    1.000000E+10               pilotpt    1.000000E+00    0.000000E+00          1
              hkpp65                   log                factor    4.133300E+01    1.000000E-10    1.000000E+10               pilotpt    1.000000E+00    0.000000E+00          1
              hkpp66                   log                factor    4.067878E+01    1.000000E-10    1.000000E+10               pilotpt    1.000000E+00    0.000000E+00          1
              hkpp67                   log                factor    6.863156E+01    1.000000E-10    1.000000E+10               pilotpt    1.000000E+00    0.000000E+00          1
              hkpp68                   log                factor    6.151397E+01    1.000000E-10    1.000000E+10               pilotpt    1.000000E+00    0.000000E+00          1
              hkpp69                   log                factor    5.838814E+01    1.000000E-10    1.000000E+10               pilotpt    1.000000E+00    0.000000E+00          1
              hkpp70                   log                factor    4.655087E+01    1.000000E-10    1.000000E+10               pilotpt    1.000000E+00    0.000000E+00          1
* observation groups
            head_cal
            flux_cal
         travel_fore
              potobs
           flux_fore
           head_fore
* observation data
cr03c16    2.218672E+01    1.000000E+00              head_cal
             cr03c10    2.408591E+01    1.000000E+00              head_cal
              cr04c9    2.233339E+01    1.000000E+00              head_cal
              cr10c2    3.183430E+01    1.000000E+00              head_cal
             cr14c11    1.772841E+01    1.000000E+00              head_cal
             cr16c17    1.656648E+01    1.000000E+00              head_cal
             cr22c11    1.828594E+01    1.000000E+00              head_cal
             cr23c16    1.520820E+01    1.000000E+00              head_cal
              cr25c5    2.424294E+01    1.000000E+00              head_cal
              cr27c7    2.274890E+01    1.000000E+00              head_cal
             cr30c16    1.473617E+01    1.000000E+00              head_cal
              cr34c8    1.861989E+01    1.000000E+00              head_cal
             cr35c11    1.561996E+01    1.000000E+00              head_cal
         rivflux_cal   -9.999990E+05    0.000000E+00              flux_cal
             fr03c16   -9.999990E+05    0.000000E+00             head_fore
             fr03c10   -9.999990E+05    0.000000E+00             head_fore
              fr04c9   -9.999990E+05    0.000000E+00             head_fore
              fr10c2   -9.999990E+05    0.000000E+00             head_fore
             fr14c11   -9.999990E+05    0.000000E+00             head_fore
             fr16c17   -9.999990E+05    0.000000E+00             head_fore
             fr22c11   -9.999990E+05    0.000000E+00             head_fore
             fr23c16   -9.999990E+05    0.000000E+00             head_fore
              fr25c5   -9.999990E+05    0.000000E+00             head_fore
              fr27c7   -9.999990E+05    0.000000E+00             head_fore
             fr30c16   -9.999990E+05    0.000000E+00             head_fore
              fr34c8   -9.999990E+05    0.000000E+00             head_fore
             fr35c11   -9.999990E+05    0.000000E+00             head_fore
             fr02c02   -9.999990E+05    0.000000E+00             head_fore
             fr01c13   -9.999990E+05    0.000000E+00             head_fore
             fr09c15   -9.999990E+05    0.000000E+00             head_fore
             fr25c10   -9.999990E+05    0.000000E+00             head_fore
        rivflux_fore   -9.999990E+05    0.000000E+00             flux_fore
         travel_time   -9.999990E+05    0.000000E+00           travel_fore
             pr01c01   -9.999990E+05    0.000000E+00                potobs
             pr01c02   -9.999990E+05    0.000000E+00                potobs
             pr01c03   -9.999990E+05    0.000000E+00                potobs
             pr01c04   -9.999990E+05    0.000000E+00                potobs
             pr01c05   -9.999990E+05    0.000000E+00                potobs
             pr01c06   -9.999990E+05    0.000000E+00                potobs
             pr01c07   -9.999990E+05    0.000000E+00                potobs
             pr01c08   -9.999990E+05    0.000000E+00                potobs
             pr01c09   -9.999990E+05    0.000000E+00                potobs
             pr01c10   -9.999990E+05    0.000000E+00                potobs
             pr01c11   -9.999990E+05    0.000000E+00                potobs
             pr01c12   -9.999990E+05    0.000000E+00                potobs
             pr01c13   -9.999990E+05    0.000000E+00                potobs
             pr01c14   -9.999990E+05    0.000000E+00                potobs
             pr01c15   -9.999990E+05    0.000000E+00                potobs
             pr01c16   -9.999990E+05    0.000000E+00                potobs
             pr01c17   -9.999990E+05    0.000000E+00                potobs
             pr01c18   -9.999990E+05    0.000000E+00                potobs
             pr02c01   -9.999990E+05    0.000000E+00                potobs
             pr02c02   -9.999990E+05    0.000000E+00                potobs
             pr02c03   -9.999990E+05    0.000000E+00                potobs
             pr02c04   -9.999990E+05    0.000000E+00                potobs
             pr02c05   -9.999990E+05    0.000000E+00                potobs
             pr02c06   -9.999990E+05    0.000000E+00                potobs
             pr02c07   -9.999990E+05    0.000000E+00                potobs
             pr02c08   -9.999990E+05    0.000000E+00                potobs
             pr02c09   -9.999990E+05    0.000000E+00                potobs
             pr02c10   -9.999990E+05    0.000000E+00                potobs
             pr02c11   -9.999990E+05    0.000000E+00                potobs
             pr02c12   -9.999990E+05    0.000000E+00                potobs
             pr02c13   -9.999990E+05    0.000000E+00                potobs
             pr02c14   -9.999990E+05    0.000000E+00                potobs
             pr02c15   -9.999990E+05    0.000000E+00                potobs
             pr02c16   -9.999990E+05    0.000000E+00                potobs
             pr02c17   -9.999990E+05    0.000000E+00                potobs
             pr02c18   -9.999990E+05    0.000000E+00                potobs
             pr03c01   -9.999990E+05    0.000000E+00                potobs
             pr03c02   -9.999990E+05    0.000000E+00                potobs
             pr03c03   -9.999990E+05    0.000000E+00                potobs
             pr03c04   -9.999990E+05    0.000000E+00                potobs
             pr03c05   -9.999990E+05    0.000000E+00                potobs
             pr03c06   -9.999990E+05    0.000000E+00                potobs
             pr03c07   -9.999990E+05    0.000000E+00                potobs
             pr03c08   -9.999990E+05    0.000000E+00                potobs
             pr03c09   -9.999990E+05    0.000000E+00                potobs
             pr03c10   -9.999990E+05    0.000000E+00                potobs
             pr03c11   -9.999990E+05    0.000000E+00                potobs
             pr03c12   -9.999990E+05    0.000000E+00                potobs
             pr03c13   -9.999990E+05    0.000000E+00                potobs
             pr03c14   -9.999990E+05    0.000000E+00                potobs
             pr03c15   -9.999990E+05    0.000000E+00                potobs
             pr03c16   -9.999990E+05    0.000000E+00                potobs
             pr03c17   -9.999990E+05    0.000000E+00                potobs
             pr03c18   -9.999990E+05    0.000000E+00                potobs
             pr04c01   -9.999990E+05    0.000000E+00                potobs
             pr04c02   -9.999990E+05    0.000000E+00                potobs
             pr04c03   -9.999990E+05    0.000000E+00                potobs
             pr04c04   -9.999990E+05    0.000000E+00                potobs
             pr04c05   -9.999990E+05    0.000000E+00                potobs
             pr04c06   -9.999990E+05    0.000000E+00                potobs
             pr04c07   -9.999990E+05    0.000000E+00                potobs
             pr04c08   -9.999990E+05    0.000000E+00                potobs
             pr04c09   -9.999990E+05    0.000000E+00                potobs
             pr04c10   -9.999990E+05    0.000000E+00                potobs
             pr04c11   -9.999990E+05    0.000000E+00                potobs
             pr04c12   -9.999990E+05    0.000000E+00                potobs
             pr04c13   -9.999990E+05    0.000000E+00                potobs
             pr04c14   -9.999990E+05    0.000000E+00                potobs
             pr04c15   -9.999990E+05    0.000000E+00                potobs
             pr04c16   -9.999990E+05    0.000000E+00                potobs
             pr04c17   -9.999990E+05    0.000000E+00                potobs
             pr04c18   -9.999990E+05    0.000000E+00                potobs
             pr05c01   -9.999990E+05    0.000000E+00                potobs
             pr05c02   -9.999990E+05    0.000000E+00                potobs
             pr05c03   -9.999990E+05    0.000000E+00                potobs
             pr05c04   -9.999990E+05    0.000000E+00                potobs
             pr05c05   -9.999990E+05    0.000000E+00                potobs
             pr05c06   -9.999990E+05    0.000000E+00                potobs
             pr05c07   -9.999990E+05    0.000000E+00                potobs
             pr05c08   -9.999990E+05    0.000000E+00                potobs
             pr05c09   -9.999990E+05    0.000000E+00                potobs
             pr05c10   -9.999990E+05    0.000000E+00                potobs
             pr05c11   -9.999990E+05    0.000000E+00                potobs
             pr05c12   -9.999990E+05    0.000000E+00                potobs
             pr05c13   -9.999990E+05    0.000000E+00                potobs
             pr05c14   -9.999990E+05    0.000000E+00                potobs
             pr05c15   -9.999990E+05    0.000000E+00                potobs
             pr05c16   -9.999990E+05    0.000000E+00                potobs
             pr05c17   -9.999990E+05    0.000000E+00                potobs
             pr05c18   -9.999990E+05    0.000000E+00                potobs
             pr06c01   -9.999990E+05    0.000000E+00                potobs
             pr06c02   -9.999990E+05    0.000000E+00                potobs
             pr06c03   -9.999990E+05    0.000000E+00                potobs
             pr06c04   -9.999990E+05    0.000000E+00                potobs
             pr06c05   -9.999990E+05    0.000000E+00                potobs
             pr06c06   -9.999990E+05    0.000000E+00                potobs
             pr06c07   -9.999990E+05    0.000000E+00                potobs
             pr06c08   -9.999990E+05    0.000000E+00                potobs
             pr06c09   -9.999990E+05    0.000000E+00                potobs
             pr06c10   -9.999990E+05    0.000000E+00                potobs
             pr06c11   -9.999990E+05    0.000000E+00                potobs
             pr06c12   -9.999990E+05    0.000000E+00                potobs
             pr06c13   -9.999990E+05    0.000000E+00                potobs
             pr06c14   -9.999990E+05    0.000000E+00                potobs
             pr06c15   -9.999990E+05    0.000000E+00                potobs
             pr06c16   -9.999990E+05    0.000000E+00                potobs
             pr06c17   -9.999990E+05    0.000000E+00                potobs
             pr06c18   -9.999990E+05    0.000000E+00                potobs
             pr07c01   -9.999990E+05    0.000000E+00                potobs
             pr07c02   -9.999990E+05    0.000000E+00                potobs
             pr07c03   -9.999990E+05    0.000000E+00                potobs
             pr07c04   -9.999990E+05    0.000000E+00                potobs
             pr07c05   -9.999990E+05    0.000000E+00                potobs
             pr07c06   -9.999990E+05    0.000000E+00                potobs
             pr07c07   -9.999990E+05    0.000000E+00                potobs
             pr07c08   -9.999990E+05    0.000000E+00                potobs
             pr07c09   -9.999990E+05    0.000000E+00                potobs
             pr07c10   -9.999990E+05    0.000000E+00                potobs
             pr07c11   -9.999990E+05    0.000000E+00                potobs
             pr07c12   -9.999990E+05    0.000000E+00                potobs
             pr07c13   -9.999990E+05    0.000000E+00                potobs
             pr07c14   -9.999990E+05    0.000000E+00                potobs
             pr07c15   -9.999990E+05    0.000000E+00                potobs
             pr07c16   -9.999990E+05    0.000000E+00                potobs
             pr07c17   -9.999990E+05    0.000000E+00                potobs
             pr07c18   -9.999990E+05    0.000000E+00                potobs
             pr08c01   -9.999990E+05    0.000000E+00                potobs
             pr08c02   -9.999990E+05    0.000000E+00                potobs
             pr08c03   -9.999990E+05    0.000000E+00                potobs
             pr08c07   -9.999990E+05    0.000000E+00                potobs
             pr08c08   -9.999990E+05    0.000000E+00                potobs
             pr08c09   -9.999990E+05    0.000000E+00                potobs
             pr08c10   -9.999990E+05    0.000000E+00                potobs
             pr08c11   -9.999990E+05    0.000000E+00                potobs
             pr08c12   -9.999990E+05    0.000000E+00                potobs
             pr08c13   -9.999990E+05    0.000000E+00                potobs
             pr08c14   -9.999990E+05    0.000000E+00                potobs
             pr08c15   -9.999990E+05    0.000000E+00                potobs
             pr08c16   -9.999990E+05    0.000000E+00                potobs
             pr08c17   -9.999990E+05    0.000000E+00                potobs
             pr08c18   -9.999990E+05    0.000000E+00                potobs
             pr09c01   -9.999990E+05    0.000000E+00                potobs
             pr09c02   -9.999990E+05    0.000000E+00                potobs
             pr09c03   -9.999990E+05    0.000000E+00                potobs
             pr09c08   -9.999990E+05    0.000000E+00                potobs
             pr09c09   -9.999990E+05    0.000000E+00                potobs
             pr09c10   -9.999990E+05    0.000000E+00                potobs
             pr09c11   -9.999990E+05    0.000000E+00                potobs
             pr09c12   -9.999990E+05    0.000000E+00                potobs
             pr09c13   -9.999990E+05    0.000000E+00                potobs
             pr09c14   -9.999990E+05    0.000000E+00                potobs
             pr09c15   -9.999990E+05    0.000000E+00                potobs
             pr09c16   -9.999990E+05    0.000000E+00                potobs
             pr09c17   -9.999990E+05    0.000000E+00                potobs
             pr09c18   -9.999990E+05    0.000000E+00                potobs
             pr10c01   -9.999990E+05    0.000000E+00                potobs
             pr10c02   -9.999990E+05    0.000000E+00                potobs
             pr10c03   -9.999990E+05    0.000000E+00                potobs
             pr10c08   -9.999990E+05    0.000000E+00                potobs
             pr10c09   -9.999990E+05    0.000000E+00                potobs
             pr10c10   -9.999990E+05    0.000000E+00                potobs
             pr10c11   -9.999990E+05    0.000000E+00                potobs
             pr10c12   -9.999990E+05    0.000000E+00                potobs
             pr10c13   -9.999990E+05    0.000000E+00                potobs
             pr10c14   -9.999990E+05    0.000000E+00                potobs
             pr10c15   -9.999990E+05    0.000000E+00                potobs
             pr10c16   -9.999990E+05    0.000000E+00                potobs
             pr10c17   -9.999990E+05    0.000000E+00                potobs
             pr10c18   -9.999990E+05    0.000000E+00                potobs
             pr11c01   -9.999990E+05    0.000000E+00                potobs
             pr11c02   -9.999990E+05    0.000000E+00                potobs
             pr11c03   -9.999990E+05    0.000000E+00                potobs
             pr11c08   -9.999990E+05    0.000000E+00                potobs
             pr11c09   -9.999990E+05    0.000000E+00                potobs
             pr11c10   -9.999990E+05    0.000000E+00                potobs
             pr11c11   -9.999990E+05    0.000000E+00                potobs
             pr11c12   -9.999990E+05    0.000000E+00                potobs
             pr11c13   -9.999990E+05    0.000000E+00                potobs