# DIS package for  MODFLOW-NWT, generated by Flopy.
         3        40        20         2         4         2
  0  0  0
CONSTANT    2.500000E+02                           #delr                          
CONSTANT    2.500000E+02                           #delc                          
INTERNAL               1     (FREE) -1 #model_top                     
   4.140240E+01   4.133081E+01   4.117999E+01   4.095432E+01   4.070931E+01   4.043085E+01   4.009084E+01   3.979636E+01   3.944411E+01   3.908687E+01   3.874368E+01   3.840399E+01   3.805364E+01   3.767211E+01   3.727559E+01   3.681372E+01   3.696497E+01   3.703937E+01   3.708693E+01   3.711279E+01
   4.141753E+01   4.133787E+01   4.118803E+01   4.095626E+01   4.071925E+01   4.043606E+01   4.009564E+01   3.978070E+01   3.943545E+01   3.906076E+01   3.871861E+01   3.838353E+01   3.803437E+01   3.765467E+01   3.727021E+01   3.680560E+01   3.695537E+01   3.703091E+01   3.707886E+01   3.710387E+01
   4.144245E+01   4.136702E+01   4.120671E+01   4.097007E+01   4.073389E+01   4.044087E+01   4.008412E+01   3.976557E+01   3.939819E+01   3.903209E+01   3.867385E+01   3.834215E+01   3.799277E+01   3.762735E+01   3.725536E+01   3.679268E+01   3.693945E+01   3.701274E+01   3.706073E+01   3.708591E+01
   4.148380E+01   4.140802E+01   4.124792E+01   4.100307E+01   4.074854E+01   4.045048E+01   4.007338E+01   3.972918E+01   3.936676E+01   3.895456E+01   3.860112E+01   3.827567E+01   3.793710E+01   3.758903E+01   3.721910E+01   3.677654E+01   3.692007E+01   3.698705E+01   3.703389E+01   3.705762E+01
   4.154239E+01   4.145901E+01   4.129391E+01   4.105542E+01   4.078231E+01   4.044468E+01   4.006211E+01   3.971255E+01   3.927607E+01   3.887059E+01   3.852362E+01   3.820268E+01   3.787408E+01   3.753572E+01   3.717611E+01   3.675341E+01   3.688242E+01   3.695008E+01   3.699477E+01   3.701869E+01
   4.160534E+01   4.153455E+01   4.136453E+01   4.111573E+01   4.082088E+01   4.046301E+01   4.005827E+01   3.961914E+01   3.920841E+01   3.877740E+01   3.840944E+01   3.810872E+01   3.779416E+01   3.746841E+01   3.712472E+01   3.671585E+01   3.683689E+01   3.689748E+01   3.694604E+01   3.697164E+01
   4.168361E+01   4.161142E+01   4.146446E+01   4.120088E+01   4.087869E+01   4.045464E+01   4.002824E+01   3.950999E+01   3.906732E+01   3.862727E+01   3.828530E+01   3.799799E+01   3.769825E+01   3.738658E+01   3.705692E+01   3.666760E+01   3.677657E+01   3.683593E+01   3.688470E+01   3.691358E+01
   4.180635E+01   4.173301E+01   4.160455E+01   4.136411E+01   4.093629E+01   4.046154E+01   3.995647E+01   3.933681E+01   3.885104E+01   3.844459E+01   3.813887E+01   3.787000E+01   3.758790E+01   3.728421E+01   3.697276E+01   3.660574E+01   3.668644E+01   3.675731E+01   3.681558E+01   3.685176E+01
   4.192367E+01   4.187130E+01   4.179509E+01   4.172395E+01  -1.049990E+03  -1.049990E+03  -1.049990E+03   3.891967E+01   3.851255E+01   3.822691E+01   3.797980E+01   3.772636E+01   3.745673E+01   3.717269E+01   3.687622E+01   3.652253E+01   3.654354E+01   3.665379E+01   3.674355E+01   3.678944E+01
   4.203880E+01   4.199784E+01   4.196479E+01   4.192723E+01  -1.049990E+03  -1.049990E+03  -1.049990E+03  -1.049990E+03   3.816611E+01   3.800510E+01   3.780128E+01   3.757563E+01   3.731744E+01   3.703664E+01   3.676944E+01   3.642353E+01   3.625089E+01   3.654821E+01   3.668683E+01   3.674303E+01
   4.211337E+01   4.209034E+01   4.206820E+01   4.205547E+01  -1.049990E+03  -1.049990E+03  -1.049990E+03  -1.049990E+03   3.791784E+01   3.780631E+01   3.764214E+01   3.743312E+01   3.716574E+01   3.686620E+01   3.667557E+01   3.642511E+01   3.646034E+01   3.658425E+01   3.667849E+01   3.672586E+01
   4.214170E+01   4.213201E+01   4.212094E+01   4.211327E+01  -1.049990E+03  -1.049990E+03  -1.049990E+03  -1.049990E+03   3.773868E+01   3.765369E+01   3.750962E+01   3.731304E+01   3.701848E+01   3.656250E+01   3.658429E+01   3.642244E+01   3.653146E+01   3.661886E+01   3.668739E+01   3.672439E+01
   4.213451E+01   4.212715E+01   4.211955E+01   4.211339E+01  -1.049990E+03  -1.049990E+03  -1.049990E+03  -1.049990E+03   3.761175E+01   3.754174E+01   3.741450E+01   3.724542E+01   3.702221E+01   3.676757E+01   3.662775E+01   3.643650E+01   3.656241E+01   3.664036E+01   3.669851E+01   3.672892E+01
   4.208510E+01   4.207922E+01   4.206797E+01   4.206170E+01  -1.049990E+03  -1.049990E+03  -1.049990E+03  -1.049990E+03   3.752288E+01   3.745971E+01   3.734975E+01   3.720838E+01   3.702946E+01   3.683570E+01   3.666217E+01   3.644673E+01   3.657764E+01   3.665281E+01   3.670547E+01   3.673260E+01
   4.198830E+01   4.198527E+01   4.197438E+01   4.196894E+01  -1.049990E+03  -1.049990E+03  -1.049990E+03  -1.049990E+03   3.745547E+01   3.739957E+01   3.730126E+01   3.717941E+01   3.702468E+01   3.685263E+01   3.667363E+01   3.644870E+01   3.658272E+01   3.665633E+01   3.670647E+01   3.673284E+01
   4.185841E+01   4.185143E+01   4.184037E+01   4.183794E+01  -1.049990E+03  -1.049990E+03  -1.049990E+03  -1.049990E+03   3.740554E+01   3.735120E+01   3.726471E+01   3.715162E+01   3.700932E+01   3.684669E+01   3.666943E+01   3.644130E+01   3.657692E+01   3.665166E+01   3.670233E+01   3.672839E+01
   4.167511E+01   4.165886E+01   4.166023E+01   4.166608E+01  -1.049990E+03  -1.049990E+03  -1.049990E+03  -1.049990E+03   3.736855E+01   3.731945E+01   3.723160E+01   3.712254E+01   3.698528E+01   3.682616E+01   3.665132E+01   3.642750E+01   3.656192E+01   3.664008E+01   3.669212E+01   3.671858E+01
   4.147307E+01   4.145947E+01   4.144657E+01   4.145140E+01  -1.049990E+03  -1.049990E+03  -1.049990E+03  -1.049990E+03   3.734654E+01   3.729317E+01   3.720372E+01   3.709338E+01   3.695347E+01   3.679295E+01   3.661905E+01   3.640467E+01   3.653970E+01   3.662173E+01   3.667646E+01   3.670440E+01
   4.123102E+01   4.121955E+01   4.120021E+01   4.120232E+01  -1.049990E+03  -1.049990E+03  -1.049990E+03  -1.049990E+03   3.733418E+01   3.727693E+01   3.718184E+01   3.706367E+01   3.691560E+01   3.674312E+01   3.656112E+01   3.636996E+01   3.651072E+01   3.659912E+01   3.665761E+01   3.668833E+01
   4.095415E+01   4.093248E+01   4.090967E+01   4.090255E+01  -1.049990E+03  -1.049990E+03  -1.049990E+03  -1.049990E+03   3.734035E+01   3.727197E+01   3.716696E+01   3.703756E+01   3.687227E+01   3.667152E+01   3.645059E+01   3.631789E+01   3.647532E+01   3.657439E+01   3.663901E+01   3.667050E+01
   4.064090E+01   4.062161E+01   4.059554E+01   4.055920E+01  -1.049990E+03  -1.049990E+03  -1.049990E+03  -1.049990E+03   3.737230E+01   3.728254E+01   3.716141E+01   3.701743E+01   3.683480E+01   3.658897E+01   3.619255E+01   3.625446E+01   3.644421E+01   3.655286E+01   3.662151E+01   3.665398E+01
   4.033250E+01   4.028476E+01   4.021049E+01   4.015425E+01  -1.049990E+03  -1.049990E+03   3.774742E+01   3.764158E+01   3.744842E+01   3.730881E+01   3.715763E+01   3.700913E+01   3.683473E+01   3.663124E+01   3.641222E+01   3.628767E+01   3.644492E+01   3.654218E+01   3.660690E+01   3.663943E+01
   3.998055E+01   3.992854E+01   3.983134E+01   3.966831E+01   3.932879E+01  -1.049990E+03   3.781273E+01   3.767459E+01   3.748008E+01   3.731354E+01   3.714478E+01   3.699532E+01   3.683361E+01   3.666259E+01   3.648672E+01   3.630814E+01   3.644897E+01   3.653585E+01   3.659534E+01   3.662613E+01
   3.968135E+01   3.960519E+01   3.948785E+01   3.929340E+01   3.895347E+01   3.841831E+01   3.797786E+01   3.770161E+01   3.749183E+01   3.728688E+01   3.710855E+01   3.696172E+01   3.681629E+01   3.666399E+01   3.650589E+01   3.631206E+01   3.644689E+01   3.652736E+01   3.658406E+01   3.661283E+01
   3.938324E+01   3.930471E+01   3.917320E+01   3.899276E+01   3.866334E+01   3.827208E+01   3.795735E+01   3.768290E+01   3.744674E+01   3.721626E+01   3.703158E+01   3.689914E+01   3.677538E+01   3.664332E+01   3.649712E+01   3.630368E+01   3.643824E+01   3.651514E+01   3.656965E+01   3.659711E+01
   3.910700E+01   3.903420E+01   3.891130E+01   3.868110E+01   3.841767E+01   3.812916E+01   3.786061E+01   3.759433E+01   3.735204E+01   3.711337E+01   3.688301E+01   3.680276E+01   3.671619E+01   3.660676E+01   3.647456E+01   3.628783E+01   3.642137E+01   3.649766E+01   3.655125E+01   3.657830E+01
   3.884366E+01   3.877853E+01   3.864642E+01   3.846204E+01   3.821249E+01   3.796350E+01   3.770759E+01   3.747356E+01   3.723775E+01   3.697550E+01   3.658247E+01   3.668353E+01   3.665120E+01   3.656363E+01   3.644421E+01   3.626700E+01   3.640038E+01   3.647625E+01   3.652697E+01   3.655432E+01
   3.861777E+01   3.854830E+01   3.841541E+01   3.823876E+01   3.800440E+01   3.776583E+01   3.752155E+01   3.732144E+01   3.713591E+01   3.693858E+01   3.673933E+01   3.667929E+01   3.661332E+01   3.652329E+01   3.641037E+01   3.624270E+01   3.637390E+01   3.644932E+01   3.649981E+01   3.652631E+01
   3.840943E+01   3.832788E+01   3.820380E+01   3.802347E+01   3.778801E+01   3.753653E+01   3.726489E+01   3.714219E+01   3.702019E+01   3.688031E+01   3.674509E+01   3.665382E+01   3.657045E+01   3.647782E+01   3.637086E+01   3.621430E+01   3.634251E+01   3.641716E+01   3.646765E+01   3.649462E+01
   3.821676E+01   3.813514E+01   3.800028E+01   3.781533E+01   3.759379E+01   3.729831E+01   3.684633E+01   3.694880E+01   3.689189E+01   3.679188E+01   3.668562E+01   3.659262E+01   3.650566E+01   3.641782E+01   3.632046E+01   3.618094E+01   3.630465E+01   3.637978E+01   3.643051E+01   3.645730E+01
   3.806652E+01   3.797926E+01   3.784015E+01   3.766755E+01   3.743599E+01   3.721455E+01   3.696532E+01   3.687086E+01   3.678169E+01   3.668354E+01   3.658536E+01   3.649651E+01   3.641456E+01   3.633738E+01   3.625739E+01   3.614024E+01   3.626166E+01   3.633675E+01   3.638847E+01   3.641528E+01
   3.798029E+01   3.784370E+01   3.768832E+01   3.747738E+01   3.729498E+01   3.709581E+01   3.690232E+01   3.676325E+01   3.665710E+01   3.655111E+01   3.645151E+01   3.636269E+01   3.628809E+01   3.622977E+01   3.617637E+01   3.609178E+01   3.621067E+01   3.628850E+01   3.634165E+01   3.637105E+01
  -1.049990E+03   3.770085E+01   3.752567E+01   3.731236E+01   3.712592E+01   3.693610E+01   3.675883E+01   3.661667E+01   3.649423E+01   3.638322E+01   3.627972E+01   3.618781E+01   3.611276E+01   3.608802E+01   3.607450E+01   3.603376E+01   3.615248E+01   3.623445E+01   3.629139E+01   3.632333E+01
  -1.049990E+03  -1.049990E+03   3.734243E+01   3.711764E+01   3.691348E+01   3.672842E+01   3.655691E+01   3.642249E+01   3.629778E+01   3.617893E+01   3.607124E+01   3.596267E+01   3.586173E+01   3.590494E+01   3.595152E+01   3.596730E+01   3.608716E+01   3.617374E+01   3.623781E+01   3.627760E+01
  -1.049990E+03  -1.049990E+03  -1.049990E+03   3.690564E+01   3.664886E+01   3.646882E+01   3.632129E+01   3.618779E+01   3.605655E+01   3.594630E+01   3.583733E+01   3.569673E+01   3.544105E+01   3.568896E+01   3.581629E+01   3.589449E+01   3.601356E+01   3.610570E+01   3.617663E+01   3.624277E+01
  -1.049990E+03  -1.049990E+03  -1.049990E+03  -1.049990E+03   3.630376E+01   3.615710E+01   3.601361E+01   3.588013E+01   3.577333E+01   3.568301E+01   3.559993E+01   3.552245E+01   3.546609E+01   3.556995E+01   3.569355E+01   3.581852E+01   3.593229E+01   3.602633E+01   3.608914E+01  -1.049990E+03
  -1.049990E+03  -1.049990E+03  -1.049990E+03  -1.049990E+03   3.607837E+01   3.580235E+01   3.564856E+01   3.552173E+01   3.544349E+01   3.538018E+01   3.532767E+01   3.529636E+01   3.530625E+01   3.539742E+01   3.554056E+01   3.573032E+01   3.584232E+01   3.594884E+01   3.603420E+01  -1.049990E+03
  -1.049990E+03  -1.049990E+03  -1.049990E+03  -1.049990E+03  -1.049990E+03   3.525706E+01   3.518401E+01   3.511956E+01   3.507514E+01   3.503290E+01   3.500625E+01   3.500189E+01   3.503445E+01   3.513234E+01   3.531859E+01   3.562220E+01   3.573995E+01   3.585939E+01  -1.049990E+03  -1.049990E+03
  -1.049990E+03  -1.049990E+03  -1.049990E+03  -1.049990E+03  -1.049990E+03   3.472644E+01   3.471282E+01   3.468212E+01   3.465570E+01   3.463506E+01   3.462378E+01   3.463025E+01   3.466250E+01   3.474858E+01   3.495787E+01   3.550645E+01   3.562413E+01  -1.049990E+03  -1.049990E+03  -1.049990E+03
  -1.049990E+03  -1.049990E+03  -1.049990E+03  -1.049990E+03  -1.049990E+03   3.413233E+01   3.413203E+01   3.413229E+01   3.413201E+01   3.413195E+01   3.413202E+01   3.413209E+01   3.413258E+01   3.413383E+01   3.413611E+01  -1.049990E+03  -1.049990E+03  -1.049990E+03  -1.049990E+03  -1.049990E+03
INTERNAL               1     (FREE) -1 #botm_layer_0                  
   3.250000E+01   3.250000E+01   3.250000E+01   3.250000E+01   3.250000E+01   3.250000E+01   3.250000E+01   3.250000E+01   3.250000E+01   3.250000E+01   3.250000E+01   3.250000E+01   3.250000E+01   3.250000E+01   3.250000E+01   3.250000E+01   3.250000E+01   3.250000E+01   3.250000E+01   3.250000E+01
   3.250000E+01   3.250000E+01   3.250000E+01   3.250000E+01   3.250000E+01   3.250000E+01   3.250000E+01   3.250000E+01   3.250000E+01   3.250000E+01   3.250000E+01   3.250000E+01   3.250000E+01   3.250000E+01   3.250000E+01   3.250000E+01   3.250000E+01   3.250000E+01   3.250000E+01   3.250000E+01
   3.250000E+01   3.250000E+01   3.250000E+01   3.250000E+01   3.250000E+01   3.250000E+01   3.250000E+01   3.250000E+01   3.250000E+01   3.250000E+01   3.250000E+01   3.250000E+01   3.250000E+01   3.250000E+01   3.250000E+01   3.250000E+01   3.250000E+01   3.250000E+01   3.250000E+01   3.250000E+01
   3.250000E+01   3.250000E+01   3.250000E+01   3.250000E+01   3.250000E+01   3.250000E+01   3.250000E+01   3.250000E+01   3.250000E+01   3.250000E+01   3.250000E+01   3.250000E+01   3.250000E+01   3.250000E+01   3.250000E+01   3.250000E+01   3.250000E+01   3.250000E+01   3.250000E+01   3.250000E+01
   3.250000E+01   3.250000E+01   3.250000E+01   3.250000E+01   3.250000E+01   3.250000E+01   3.250000E+01   3.250000E+01   3.250000E+01   3.250000E+01   3.250000E+01   3.250000E+01   3.250000E+01   3.250000E+01   3.250000E+01   3.250000E+01   3.250000E+01   3.250000E+01   3.250000E+01   3.250000E+01
   3.250000E+01   3.250000E+01   3.250000E+01   3.250000E+01   3.250000E+01   3.250000E+01   3.250000E+01   3.250000E+01   3.250000E+01   3.250000E+01   3.250000E+01   3.250000E+01   3.250000E+01   3.250000E+01   3.250000E+01   3.250000E+01   3.250000E+01   3.250000E+01   3.250000E+01   3.250000E+01
   3.250000E+01   3.250000E+01   3.250000E+01   3.250000E+01   3.250000E+01   3.250000E+01   3.250000E+01   3.250000E+01   3.250000E+01   3.250000E+01   3.250000E+01   3.250000E+01   3.250000E+01   3.250000E+01   3.250000E+01   3.250000E+01   3.250000E+01   3.250000E+01   3.250000E+01   3.250000E+01
   3.250000E+01   3.250000E+01   3.250000E+01   3.250000E+01   3.250000E+01   3.250000E+01   3.250000E+01   3.250000E+01   3.250000E+01   3.250000E+01   3.250000E+01   3.250000E+01   3.250000E+01   3.250000E+01   3.250000E+01   3.250000E+01   3.250000E+01   3.250000E+01   3.250000E+01   3.250000E+01
   3.250000E+01   3.250000E+01   3.250000E+01   3.250000E+01   3.250000E+01   3.250000E+01   3.250000E+01   3.250000E+01   3.250000E+01   3.250000E+01   3.250000E+01   3.250000E+01   3.250000E+01   3.250000E+01   3.250000E+01   3.250000E+01   3.250000E+01   3.250000E+01   3.250000E+01   3.250000E+01
   3.250000E+01   3.250000E+01   3.250000E+01   3.250000E+01   3.250000E+01   3.250000E+01   3.250000E+01   3.250000E+01   3.250000E+01   3.250000E+01   3.250000E+01   3.250000E+01   3.250000E+01   3.250000E+01   3.250000E+01   3.250000E+01   3.250000E+01   3.250000E+01   3.250000E+01   3.250000E+01
   3.250000E+01   3.250000E+01   3.250000E+01   3.250000E+01   3.250000E+01   3.250000E+01   3.250000E+01   3.250000E+01   3.250000E+01   3.250000E+01   3.250000E+01   3.250000E+01   3.250000E+01   3.250000E+01   3.250000E+01   3.250000E+01   3.250000E+01   3.250000E+01   3.250000E+01   3.250000E+01
   3.250000E+01   3.250000E+01   3.250000E+01   3.250000E+01   3.250000E+01   3.250000E+01   3.250000E+01   3.250000E+01   3.250000E+01   3.250000E+01   3.250000E+01   3.250000E+01   3.250000E+01   3.250000E+01   3.250000E+01   3.250000E+01   3.250000E+01   3.250000E+01   3.250000E+01   3.250000E+01
   3.250000E+01   3.250000E+01   3.250000E+01   3.250000E+01   3.250000E+01   3.250000E+01   3.250000E+01   3.250000E+01   3.250000E+01   3.250000E+01   3.250000E+01   3.250000E+01   3.250000E+01   3.250000E+01   3.250000E+01   3.250000E+01   3.250000E+01   3.250000E+01   3.250000E+01   3.250000E+01
   3.250000E+01   3.250000E+01   3.250000E+01   3.250000E+01   3.250000E+01   3.250000E+01   3.250000E+01   3.250000E+01   3.250000E+01   3.250000E+01   3.250000E+01   3.250000E+01   3.250000E+01   3.250000E+01   3.250000E+01   3.250000E+01   3.250000E+01   3.250000E+01   3.250000E+01   3.250000E+01
   3.250000E+01   3.250000E+01   3.250000E+01   3.250000E+01   3.250000E+01   3.250000E+01   3.250000E+01   3.250000E+01   3.250000E+01   3.250000E+01   3.250000E+01   3.250000E+01   3.250000E+01   3.250000E+01   3.250000E+01   3.250000E+01   3.250000E+01   3.250000E+01   3.250000E+01   3.250000E+01
   3.250000E+01   3.250000E+01   3.250000E+01   3.250000E+01   3.250000E+01   3.250000E+01   3.250000E+01   3.250000E+01   3.250000E+01   3.250000E+01   3.250000E+01   3.250000E+01   3.250000E+01   3.250000E+01   3.250000E+01   3.250000E+01   3.250000E+01   3.250000E+01   3.250000E+01   3.250000E+01
   3.250000E+01   3.250000E+01   3.250000E+01   3.250000E+01   3.250000E+01   3.250000E+01   3.250000E+01   3.250000E+01   3.250000E+01   3.250000E+01   3.250000E+01   3.250000E+01   3.250000E+01   3.250000E+01   3.250000E+01   3.250000E+01   3.250000E+01   3.250000E+01   3.250000E+01   3.250000E+01
   3.250000E+01   3.250000E+01   3.250000E+01   3.250000E+01   3.250000E+01   3.250000E+01   3.250000E+01   3.250000E+01   3.250000E+01   3.250000E+01   3.250000E+01   3.250000E+01   3.250000E+01   3.250000E+01   3.250000E+01   3.250000E+01   3.250000E+01   3.250000E+01   3.250000E+01   3.250000E+01
   3.250000E+01   3.250000E+01   3.250000E+01   3.250000E+01   3.250000E+01   3.250000E+01   3.250000E+01   3.250000E+01   3.250000E+01   3.250000E+01   3.250000E+01   3.250000E+01   3.250000E+01   3.250000E+01   3.250000E+01   3.250000E+01   3.250000E+01   3.250000E+01   3.250000E+01   3.250000E+01
   3.250000E+01   3.250000E+01   3.250000E+01   3.250000E+01   3.250000E+01   3.250000E+01   3.250000E+01   3.250000E+01   3.250000E+01   3.250000E+01   3.250000E+01   3.250000E+01   3.250000E+01   3.250000E+01   3.250000E+01   3.250000E+01   3.250000E+01   3.250000E+01   3.250000E+01   3.250000E+01
   3.250000E+01   3.250000E+01   3.250000E+01   3.250000E+01   3.250000E+01   3.250000E+01   3.250000E+01   3.250000E+01   3.250000E+01   3.250000E+01   3.250000E+01   3.250000E+01   3.250000E+01   3.250000E+01   3.250000E+01   3.250000E+01   3.250000E+01   3.250000E+01   3.250000E+01   3.250000E+01
   3.250000E+01   3.250000E+01   3.250000E+01   3.250000E+01   3.250000E+01   3.250000E+01   3.250000E+01   3.250000E+01   3.250000E+01   3.250000E+01   3.250000E+01   3.250000E+01   3.250000E+01   3.250000E+01   3.250000E+01   3.250000E+01   3.250000E+01   3.250000E+01   3.250000E+01   3.250000E+01
   3.250000E+01   3.250000E+01   3.250000E+01   3.250000E+01   3.250000E+01   3.250000E+01   3.250000E+01   3.250000E+01   3.250000E+01   3.250000E+01   3.250000E+01   3.250000E+01   3.250000E+01   3.250000E+01   3.250000E+01   3.250000E+01   3.250000E+01   3.250000E+01   3.250000E+01   3.250000E+01
   3.250000E+01   3.250000E+01   3.250000E+01   3.250000E+01   3.250000E+01   3.250000E+01   3.250000E+01   3.250000E+01   3.250000E+01   3.250000E+01   3.250000E+01   3.250000E+01   3.250000E+01   3.250000E+01   3.250000E+01   3.250000E+01   3.250000E+01   3.250000E+01   3.250000E+01   3.250000E+01
   3.250000E+01   3.250000E+01   3.250000E+01   3.250000E+01   3.250000E+01   3.250000E+01   3.250000E+01   3.250000E+01   3.250000E+01   3.250000E+01   3.250000E+01   3.250000E+01   3.250000E+01   3.250000E+01   3.250000E+01   3.250000E+01   3.250000E+01   3.250000E+01   3.250000E+01   3.250000E+01
   3.250000E+01   3.250000E+01   3.250000E+01   3.250000E+01   3.250000E+01   3.250000E+01   3.250000E+01   3.250000E+01   3.250000E+01   3.250000E+01   3.250000E+01   3.250000E+01   3.250000E+01   3.250000E+01   3.250000E+01   3.250000E+01   3.250000E+01   3.250000E+01   3.250000E+01   3.250000E+01
   3.250000E+01   3.250000E+01   3.250000E+01   3.250000E+01   3.250000E+01   3.250000E+01   3.250000E+01   3.250000E+01   3.250000E+01   3.250000E+01   3.250000E+01   3.250000E+01   3.250000E+01   3.250000E+01   3.250000E+01   3.250000E+01   3.250000E+01   3.250000E+01   3.250000E+01   3.250000E+01
   3.250000E+01   3.250000E+01   3.250000E+01   3.250000E+01   3.250000E+01   3.250000E+01   3.250000E+01   3.250000E+01   3.250000E+01   3.250000E+01   3.250000E+01   3.250000E+01   3.250000E+01   3.250000E+01   3.250000E+01   3.250000E+01   3.250000E+01   3.250000E+01   3.250000E+01   3.250000E+01
   3.250000E+01   3.250000E+01   3.250000E+01   3.250000E+01   3.250000E+01   3.250000E+01   3.250000E+01   3.250000E+01   3.250000E+01   3.250000E+01   3.250000E+01   3.250000E+01   3.250000E+01   3.250000E+01   3.250000E+01   3.250000E+01   3.250000E+01   3.250000E+01   3.250000E+01   3.250000E+01
   3.250000E+01   3.250000E+01   3.250000E+01   3.250000E+01   3.250000E+01   3.250000E+01   3.250000E+01   3.250000E+01   3.250000E+01   3.250000E+01   3.250000E+01   3.250000E+01   3.250000E+01   3.250000E+01   3.250000E+01   3.250000E+01   3.250000E+01   3.250000E+01   3.250000E+01   3.250000E+01
   3.250000E+01   3.250000E+01   3.250000E+01   3.250000E+01   3.250000E+01   3.250000E+01   3.250000E+01   3.250000E+01   3.250000E+01   3.250000E+01   3.250000E+01   3.250000E+01   3.250000E+01   3.250000E+01   3.250000E+01   3.250000E+01   3.250000E+01   3.250000E+01   3.250000E+01   3.250000E+01
   3.250000E+01   3.250000E+01   3.250000E+01   3.250000E+01   3.250000E+01   3.250000E+01   3.250000E+01   3.250000E+01   3.250000E+01   3.250000E+01   3.250000E+01   3.250000E+01   3.250000E+01   3.250000E+01   3.250000E+01   3.250000E+01   3.250000E+01   3.250000E+01   3.250000E+01   3.250000E+01
   3.250000E+01   3.250000E+01   3.250000E+01   3.250000E+01   3.250000E+01   3.250000E+01   3.250000E+01   3.250000E+01   3.250000E+01   3.250000E+01   3.250000E+01   3.250000E+01   3.250000E+01   3.250000E+01   3.250000E+01   3.250000E+01   3.250000E+01   3.250000E+01   3.250000E+01   3.250000E+01
   3.250000E+01   3.250000E+01   3.250000E+01   3.250000E+01   3.250000E+01   3.250000E+01   3.250000E+01   3.250000E+01   3.250000E+01   3.250000E+01   3.250000E+01   3.250000E+01   3.250000E+01   3.250000E+01   3.250000E+01   3.250000E+01   3.250000E+01   3.250000E+01   3.250000E+01   3.250000E+01
   3.250000E+01   3.250000E+01   3.250000E+01   3.250000E+01   3.250000E+01   3.250000E+01   3.250000E+01   3.250000E+01   3.250000E+01   3.250000E+01   3.250000E+01   3.250000E+01   3.250000E+01   3.250000E+01   3.250000E+01   3.250000E+01   3.250000E+01   3.250000E+01   3.250000E+01   3.250000E+01
   3.250000E+01   3.250000E+01   3.250000E+01   3.250000E+01   3.250000E+01   3.250000E+01   3.250000E+01   3.250000E+01   3.250000E+01   3.250000E+01   3.250000E+01   3.250000E+01   3.250000E+01   3.250000E+01   3.250000E+01   3.250000E+01   3.250000E+01   3.250000E+01   3.250000E+01   3.250000E+01
   3.250000E+01   3.250000E+01   3.250000E+01   3.250000E+01   3.250000E+01   3.250000E+01   3.250000E+01   3.250000E+01   3.250000E+01   3.250000E+01   3.250000E+01   3.250000E+01   3.250000E+01   3.250000E+01   3.250000E+01   3.250000E+01   3.250000E+01   3.250000E+01   3.250000E+01   3.250000E+01
   3.250000E+01   3.250000E+01   3.250000E+01   3.250000E+01   3.250000E+01   3.250000E+01   3.250000E+01   3.250000E+01   3.250000E+01   3.250000E+01   3.250000E+01   3.250000E+01   3.250000E+01   3.250000E+01   3.250000E+01   3.250000E+01   3.250000E+01   3.250000E+01   3.250000E+01   3.250000E+01
   3.250000E+01   3.250000E+01   3.250000E+01   3.250000E+01   3.250000E+01   3.250000E+01   3.250000E+01   3.250000E+01   3.250000E+01   3.250000E+01   3.250000E+01   3.250000E+01   3.250000E+01   3.250000E+01   3.250000E+01   3.250000E+01   3.250000E+01   3.250000E+01   3.250000E+01   3.250000E+01
   3.250000E+01   3.250000E+01   3.250000E+01   3.250000E+01   3.250000E+01   3.250000E+01   3.250000E+01   3.250000E+01   3.250000E+01   3.250000E+01   3.250000E+01   3.250000E+01   3.250000E+01   3.250000E+01   3.250000E+01   3.250000E+01   3.250000E+01   3.250000E+01   3.250000E+01   3.250000E+01
INTERNAL               1     (FREE) -1 #botm_layer_1                  
   3.000000E+01   3.000000E+01   3.000000E+01   3.000000E+01   3.000000E+01   3.000000E+01   3.000000E+01   3.000000E+01   3.000000E+01   3.000000E+01   3.000000E+01   3.000000E+01   3.000000E+01   3.000000E+01   3.000000E+01   3.000000E+01   3.000000E+01   3.000000E+01   3.000000E+01   3.000000E+01
   3.000000E+01   3.000000E+01   3.000000E+01   3.000000E+01   3.000000E+01   3.000000E+01   3.000000E+01   3.000000E+01   3.000000E+01   3.000000E+01   3.000000E+01   3.000000E+01   3.000000E+01   3.000000E+01   3.000000E+01   3.000000E+01   3.000000E+01   3.000000E+01   3.000000E+01   3.000000E+01
   3.000000E+01   3.000000E+01   3.000000E+01   3.000000E+01   3.000000E+01   3.000000E+01   3.000000E+01   3.000000E+01   3.000000E+01   3.000000E+01   3.000000E+01   3.000000E+01   3.000000E+01   3.000000E+01   3.000000E+01   3.000000E+01   3.000000E+01   3.000000E+01   3.000000E+01   3.000000E+01
   3.000000E+01   3.000000E+01   3.000000E+01   3.000000E+01   3.000000E+01   3.000000E+01   3.000000E+01   3.000000E+01   3.000000E+01   3.000000E+01   3.000000E+01   3.000000E+01   3.000000E+01   3.000000E+01   3.000000E+01   3.000000E+01   3.000000E+01   3.000000E+01   3.000000E+01   3.000000E+01
   3.000000E+01   3.000000E+01   3.000000E+01   3.000000E+01   3.000000E+01   3.000000E+01   3.000000E+01   3.000000E+01   3.000000E+01   3.000000E+01   3.000000E+01   3.000000E+01   3.000000E+01   3.000000E+01   3.000000E+01   3.000000E+01   3.000000E+01   3.000000E+01   3.000000E+01   3.000000E+01
   3.000000E+01   3.000000E+01   3.000000E+01   3.000000E+01   3.000000E+01   3.000000E+01   3.000000E+01   3.000000E+01   3.000000E+01   3.000000E+01   3.000000E+01   3.000000E+01   3.000000E+01   3.000000E+01   3.000000E+01   3.000000E+01   3.000000E+01   3.000000E+01   3.000000E+01   3.000000E+01
   3.000000E+01   3.000000E+01   3.000000E+01   3.000000E+01   3.000000E+01   3.000000E+01   3.000000E+01   3.000000E+01   3.000000E+01   3.000000E+01   3.000000E+01   3.000000E+01   3.000000E+01   3.000000E+01   3.000000E+01   3.000000E+01   3.000000E+01   3.000000E+01   3.000000E+01   3.000000E+01
   3.000000E+01   3.000000E+01   3.000000E+01   3.000000E+01   3.000000E+01   3.000000E+01   3.000000E+01   3.000000E+01   3.000000E+01   3.000000E+01   3.000000E+01   3.000000E+01   3.000000E+01   3.000000E+01   3.000000E+01   3.000000E+01   3.000000E+01   3.000000E+01   3.000000E+01   3.000000E+01
   3.000000E+01   3.000000E+01   3.000000E+01   3.000000E+01   3.000000E+01   3.000000E+01   3.000000E+01   3.000000E+01   3.000000E+01   3.000000E+01   3.000000E+01   3.000000E+01   3.000000E+01   3.000000E+01   3.000000E+01   3.000000E+01   3.000000E+01   3.000000E+01   3.000000E+01   3.000000E+01
   3.000000E+01   3.000000E+01   3.000000E+01   3.000000E+01   3.000000E+01   3.000000E+01   3.000000E+01   3.000000E+01   3.000000E+01   3.000000E+01   3.000000E+01   3.000000E+01   3.000000E+01   3.000000E+01   3.000000E+01   3.000000E+01   3.000000E+01   3.000000E+01   3.000000E+01   3.000000E+01
   3.000000E+01   3.000000E+01   3.000000E+01   3.000000E+01   3.000000E+01   3.000000E+01   3.000000E+01   3.000000E+01   3.000000E+01   3.000000E+01   3.000000E+01   3.000000E+01   3.000000E+01   3.000000E+01   3.000000E+01   3.000000E+01   3.000000E+01   3.000000E+01   3.000000E+01   3.000000E+01
   3.000000E+01   3.000000E+01   3.000000E+01   3.000000E+01   3.000000E+01   3.000000E+01   3.000000E+01   3.000000E+01   3.000000E+01   3.000000E+01   3.000000E+01   3.000000E+01   3.000000E+01   3.000000E+01   3.000000E+01   3.000000E+01   3.000000E+01   3.000000E+01   3.000000E+01   3.000000E+01
   3.000000E+01   3.000000E+01   3.000000E+01   3.000000E+01   3.000000E+01   3.000000E+01   3.000000E+01   3.000000E+01   3.000000E+01   3.000000E+01   3.000000E+01   3.000000E+01   3.000000E+01   3.000000E+01   3.000000E+01   3.000000E+01   3.000000E+01   3.000000E+01   3.000000E+01   3.000000E+01
   3.000000E+01   3.000000E+01   3.000000E+01   3.000000E+01   3.000000E+01   3.000000E+01   3.000000E+01   3.000000E+01   3.000000E+01   3.000000E+01   3.000000E+01   3.000000E+01   3.000000E+01   3.000000E+01   3.000000E+01   3.000000E+01   3.000000E+01   3.000000E+01   3.000000E+01   3.000000E+01
   3.000000E+01   3.000000E+01   3.000000E+01   3.000000E+01   3.000000E+01   3.000000E+01   3.000000E+01   3.000000E+01   3.000000E+01   3.000000E+01   3.000000E+01   3.000000E+01   3.000000E+01   3.000000E+01   3.000000E+01   3.000000E+01   3.000000E+01   3.000000E+01   3.000000E+01   3.000000E+01
   3.000000E+01   3.000000E+01   3.000000E+01   3.000000E+01   3.000000E+01   3.000000E+01   3.000000E+01   3.000000E+01   3.000000E+01   3.000000E+01   3.000000E+01   3.000000E+01   3.000000E+01   3.000000E+01   3.000000E+01   3.000000E+01   3.000000E+01   3.000000E+01   3.000000E+01   3.000000E+01
   3.000000E+01   3.000000E+01   3.000000E+01   3.000000E+01   3.000000E+01   3.000000E+01   3.000000E+01   3.000000E+01   3.000000E+01   3.000000E+01   3.000000E+01   3.000000E+01   3.000000E+01   3.000000E+01   3.000000E+01   3.000000E+01   3.000000E+01   3.000000E+01   3.000000E+01   3.000000E+01
   3.000000E+01   3.000000E+01   3.000000E+01   3.000000E+01   3.000000E+01   3.000000E+01   3.000000E+01   3.000000E+01   3.000000E+01   3.000000E+01   3.000000E+01   3.000000E+01   3.000000E+01   3.000000E+01   3.000000E+01   3.000000E+01   3.000000E+01   3.000000E+01   3.000000E+01   3.000000E+01