# NWT for MODFLOW-NWT, generated by Flopy.
 1.000e-04 5.000e+02       100 1.000e-05         1         0         0   COMPLEX
