# Well file for MODFLOW, generated by Flopy.
         6         0
         6         0 # stress period 0
         1         9        16  -7.0847998E+02
         1        11        13  -3.5423999E+02
         1        20        14  -3.3695999E+02
         1        26        10  -7.1711998E+01
         1        29         6  -6.2208000E+01
         1        34        12  -3.7151999E+02
         6         0 # stress period 1
         1         9        16  -8.8559998E+02
         1        11        13  -4.4279999E+02
         1        20        14  -4.2120001E+02
         1        26        10  -8.9639999E+01
         1        29         6  -7.7760002E+01
         1        34        12  -4.6439999E+02
         6         0 # stress period 2
         1         9        16  -8.8559998E+02
         1        11        13  -4.4279999E+02
         1        20        14  -4.2120001E+02
         1        26        10  -8.9639999E+01
         1        29         6  -7.7760002E+01
         1        34        12  -4.6439999E+02
