MODPATH_ENDPOINT_FILE 6 0                                                       
 1          1          1          1   0.0000000E+00
         0          0          1          0          0          0
         1
part            
END HEADER
          1     1  2   0.1826000E+04   0.9348516E+04  1    1   15    3 6          1   0.5000000E+00   0.5000000E+00   0.1000000E+01   0.6250000E+03   0.6375000E+04   0.3500000E+02  1    1   28   15 4          1   0.3733179E+00   0.1000000E+01   0.9990000E+00   0.3593330E+04   0.3250000E+04   0.3496521E+02 part_0000
