# RIV for MODFLOW, generated by Flopy.
        40         0
        40         0 # stress period 0
         1         1        15   2.0193165E+01   5.7758228E+03   2.0000000E+01
         1         2        15   1.9603195E+01   3.7900164E+03   1.9750000E+01
         1         3        15   1.9893019E+01   5.5316899E+03   1.9500000E+01
         1         4        15   1.9382729E+01   6.1349224E+03   1.9250000E+01
         1         5        15   1.9279116E+01   5.5364951E+03   1.9000000E+01
         1         6        15   1.9222437E+01   3.8421665E+03   1.8750000E+01
         1         7        15   1.8898056E+01   2.8658071E+03   1.8500000E+01
         1         8        15   1.8421654E+01   4.3178813E+03   1.8250000E+01
         1         9        15   1.8100409E+01   4.7955449E+03   1.8000000E+01
         1        10        15   1.8880199E+01   4.6375845E+03   1.7750000E+01
         1        11        15   1.8012451E+01   4.6190352E+03   1.7500000E+01
         1        12        15   1.7347507E+01   5.4741567E+03   1.7250000E+01
         1        13        15   1.7325327E+01   3.4530425E+03   1.7000000E+01
         1        14        15   1.7559322E+01   6.2510488E+03   1.6750000E+01
         1        15        15   1.6761848E+01   5.3066226E+03   1.6500000E+01
         1        16        15   1.6278086E+01   6.9815303E+03   1.6250000E+01
         1        17        15   1.6414516E+01   5.0699873E+03   1.6000000E+01
         1        18        15   1.5908072E+01   4.5562705E+03   1.5750000E+01
         1        19        15   1.6064793E+01   5.3026919E+03   1.5500000E+01
         1        20        15   1.6062916E+01   4.7653677E+03   1.5250000E+01
         1        21        15   1.5515609E+01   5.3902056E+03   1.5000000E+01
         1        22        15   1.5389983E+01   2.6494949E+03   1.4750000E+01
         1        23        15   1.5156992E+01   4.3473325E+03   1.4500000E+01
         1        24        15   1.5010956E+01   5.1095708E+03   1.4250000E+01
         1        25        15   1.4896452E+01   3.7047141E+03   1.4000000E+01
         1        26        15   1.4486598E+01   3.7106111E+03   1.3750000E+01
         1        27        15   1.4168089E+01   4.4839775E+03   1.3500000E+01
         1        28        15   1.4006746E+01   4.4046489E+03   1.3250000E+01
         1        29        15   1.3732527E+01   5.1054380E+03   1.3000000E+01
         1        30        15   1.3583859E+01   5.6198569E+03   1.2750000E+01
         1        31        15   1.3322803E+01   3.4916846E+03   1.2500000E+01
         1        32        15   1.3137552E+01   5.5148794E+03   1.2250000E+01
         1        33        15   1.2846494E+01   4.3102739E+03   1.2000000E+01
         1        34        15   1.2551982E+01   6.2699092E+03   1.1750000E+01
         1        35        15   1.2217071E+01   5.4531768E+03   1.1500000E+01
         1        36        15   1.2246086E+01   4.2121460E+03   1.1250000E+01
         1        37        15   1.1845172E+01   6.1212671E+03   1.1000000E+01
         1        38        15   1.1901993E+01   6.0833501E+03   1.0750000E+01
         1        39        15   1.1484953E+01   3.7210630E+03   1.0500000E+01
         1        40        15   1.1235225E+01   5.4267632E+03   1.0250000E+01
        40         0 # stress period 1
         1         1        15   2.0292042E+01   6.5129253E+03   2.0000000E+01
         1         2        15   1.9809393E+01   4.4378394E+03   1.9750000E+01
         1         3        15   2.0101830E+01   6.1556885E+03   1.9500000E+01
         1         4        15   1.9371908E+01   5.4100869E+03   1.9250000E+01
         1         5        15   1.9205006E+01   6.0278389E+03   1.9000000E+01
         1         6        15   1.8970554E+01   5.3132339E+03   1.8750000E+01
         1         7        15   1.8812160E+01   3.8458899E+03   1.8500000E+01
         1         8        15   1.8432236E+01   5.8306548E+03   1.8250000E+01
         1         9        15   1.8575438E+01   4.4965024E+03   1.8000000E+01
         1        10        15   1.9069981E+01   4.2822412E+03   1.7750000E+01
         1        11        15   1.7637571E+01   5.7095776E+03   1.7500000E+01
         1        12        15   1.7458248E+01   3.4826226E+03   1.7250000E+01
         1        13        15   1.7527214E+01   4.3680225E+03   1.7000000E+01
         1        14        15   1.7348610E+01   4.5933257E+03   1.6750000E+01
         1        15        15   1.6872412E+01   5.0634004E+03   1.6500000E+01
         1        16        15   1.6891100E+01   2.6124226E+03   1.6250000E+01
         1        17        15   1.6312246E+01   4.0184529E+03   1.6000000E+01
         1        18        15   1.6108078E+01   5.0950898E+03   1.5750000E+01
         1        19        15   1.6094061E+01   5.8665103E+03   1.5500000E+01
         1        20        15   1.5610521E+01   2.9689856E+03   1.5250000E+01
         1        21        15   1.5297235E+01   2.9701731E+03   1.5000000E+01
         1        22        15   1.5284417E+01   4.6798979E+03   1.4750000E+01
         1        23        15   1.5052651E+01   4.0853611E+03   1.4500000E+01
         1        24        15   1.5210653E+01   4.2381196E+03   1.4250000E+01
         1        25        15   1.4735098E+01   5.6665137E+03   1.4000000E+01
         1        26        15   1.4439049E+01   4.5054980E+03   1.3750000E+01
         1        27        15   1.4352085E+01   4.5356841E+03   1.3500000E+01
         1        28        15   1.3630346E+01   4.3735972E+03   1.3250000E+01
         1        29        15   1.3779930E+01   5.3037563E+03   1.3000000E+01
         1        30        15   1.3712304E+01   4.7367075E+03   1.2750000E+01
         1        31        15   1.3390340E+01   4.6710288E+03   1.2500000E+01
         1        32        15   1.2990572E+01   4.2251558E+03   1.2250000E+01
         1        33        15   1.2891153E+01   3.3234336E+03   1.2000000E+01
         1        34        15   1.2530561E+01   3.7883955E+03   1.1750000E+01
         1        35        15   1.2318402E+01   3.9805950E+03   1.1500000E+01
         1        36        15   1.2106802E+01   6.0591074E+03   1.1250000E+01
         1        37        15   1.1886936E+01   5.0239917E+03   1.1000000E+01
         1        38        15   1.1635486E+01   4.5884961E+03   1.0750000E+01
         1        39        15   1.1367009E+01   3.8074407E+03   1.0500000E+01
         1        40        15   1.1567722E+01   3.6440735E+03   1.0250000E+01
        40         0 # stress period 2
         1         1        15   2.0416664E+01   4.7865625E+03   2.0000000E+01
         1         2        15   1.9907391E+01   4.7422417E+03   1.9750000E+01
         1         3        15   1.9991919E+01   5.4920439E+03   1.9500000E+01
         1         4        15   1.9274244E+01   1.5897710E+03   1.9250000E+01
         1         5        15   1.9503025E+01   5.6365605E+03   1.9000000E+01
         1         6        15   1.8577879E+01   4.4057720E+03   1.8750000E+01
         1         7        15   1.8809132E+01   4.4293013E+03   1.8500000E+01
         1         8        15   1.8598379E+01   4.8884746E+03   1.8250000E+01
         1         9        15   1.8708130E+01   4.2260830E+03   1.8000000E+01
         1        10        15   1.8930229E+01   4.3298794E+03   1.7750000E+01
         1        11        15   1.7914474E+01   3.5043518E+03   1.7500000E+01
         1        12        15   1.7572178E+01   3.3658042E+03   1.7250000E+01
         1        13        15   1.7230261E+01   5.5667515E+03   1.7000000E+01
         1        14        15   1.7373060E+01   3.7053882E+03   1.6750000E+01
         1        15        15   1.6840794E+01   4.0865876E+03   1.6500000E+01
         1        16        15   1.6799488E+01   4.5248877E+03   1.6250000E+01
         1        17        15   1.6324137E+01   2.7647676E+03   1.6000000E+01
         1        18        15   1.6296953E+01   4.2618896E+03   1.5750000E+01
         1        19        15   1.6148321E+01   4.2521475E+03   1.5500000E+01
         1        20        15   1.6092554E+01   5.6902192E+03   1.5250000E+01
         1        21        15   1.5512478E+01   6.7519204E+03   1.5000000E+01
         1        22        15   1.5360891E+01   4.2448623E+03   1.4750000E+01
         1        23        15   1.5255631E+01   4.4698882E+03   1.4500000E+01
         1        24        15   1.5139617E+01   3.9631731E+03   1.4250000E+01
         1        25        15   1.4674953E+01   3.2345425E+03   1.4000000E+01
         1        26        15   1.4650302E+01   3.5583699E+03   1.3750000E+01
         1        27        15   1.4227721E+01   9.2121808E+02   1.3500000E+01
         1        28        15   1.3866716E+01   3.1873579E+03   1.3250000E+01
         1        29        15   1.3766920E+01   4.6897710E+03   1.3000000E+01
         1        30        15   1.3546460E+01   3.8035137E+03   1.2750000E+01
         1        31        15   1.3211452E+01   3.6279221E+03   1.2500000E+01
         1        32        15   1.3117833E+01   4.8769419E+03   1.2250000E+01
         1        33        15   1.2893195E+01   3.4631584E+03   1.2000000E+01
         1        34        15   1.2608678E+01   4.8954854E+03   1.1750000E+01
         1        35        15   1.2345144E+01   5.3450581E+03   1.1500000E+01
         1        36        15   1.2114922E+01   4.5712534E+03   1.1250000E+01
         1        37        15   1.2032015E+01   3.4082488E+03   1.1000000E+01
         1        38        15   1.1478930E+01   5.1252627E+03   1.0750000E+01
         1        39        15   1.1740952E+01   3.4531216E+03   1.0500000E+01
         1        40        15   1.1441230E+01   5.1509092E+03   1.0250000E+01
