MODPATH_PATHLINE_FILE 6 0                                                       
 1   0.0000000E+00
END HEADER
         1     1    -1     2   0.1826000E+04   0.6250000E+03   0.6375000E+04   0.3500000E+02    1   15    3  1  0.5000000E+00   0.5000000E+00   0.1000000E+01     1
         1     1    -1     3   0.1826000E+04   0.6250000E+03   0.6375000E+04   0.3500000E+02    1   15    3  1  0.5000000E+00   0.5000000E+00   0.1000000E+01     2
         1     1    -1     3   0.2201364E+04   0.6333094E+03   0.6250000E+04   0.3497541E+02    1   16    3  1  0.5332379E+00   0.1000000E+01   0.9990000E+00     2
         1     1    -1     3   0.2805780E+04   0.6356290E+03   0.6000000E+04   0.3497422E+02    1   17    3  1  0.5425159E+00   0.1000000E+01   0.9990000E+00     2
         1     1    -1     3   0.3296585E+04   0.6331906E+03   0.5750000E+04   0.3497192E+02    1   18    3  1  0.5327622E+00   0.1000000E+01   0.9990000E+00     2
         1     1    -1     3   0.3717889E+04   0.6377228E+03   0.5500000E+04   0.3497106E+02    1   19    3  1  0.5508912E+00   0.1000000E+01   0.9990000E+00     2
         1     1    -1     3   0.4069240E+04   0.6443265E+03   0.5250000E+04   0.3496899E+02    1   20    3  1  0.5773061E+00   0.1000000E+01   0.9990000E+00     2
         1     1    -1     3   0.4395532E+04   0.6573076E+03   0.5000000E+04   0.3497288E+02    1   21    3  1  0.6292302E+00   0.1000000E+01   0.9990000E+00     2
         1     1    -1     3   0.4653462E+04   0.6794037E+03   0.4750000E+04   0.3496973E+02    1   22    3  1  0.7176147E+00   0.1000000E+01   0.9990000E+00     2
         1     1    -1     3   0.4916595E+04   0.7170339E+03   0.4500000E+04   0.3497047E+02    1   23    3  1  0.8681359E+00   0.1000000E+01   0.9990000E+00     2
         1     1    -1     3   0.4998013E+04   0.7500000E+03   0.4419186E+04   0.3497364E+02    1   23    4  1  0.0000000E+00   0.6767450E+00   0.9990000E+00     2
         1     1    -1     3   0.5164728E+04   0.8393135E+03   0.4250000E+04   0.3497438E+02    1   24    4  1  0.3572539E+00   0.1000000E+01   0.9990000E+00     2
         1     1    -1     3   0.5377109E+04   0.1000000E+04   0.4069014E+04   0.3497601E+02    1   24    5  1  0.0000000E+00   0.2760565E+00   0.9990000E+00     2
         1     1    -1     3   0.5464064E+04   0.1086321E+04   0.4000000E+04   0.3497611E+02    1   25    5  1  0.3452850E+00   0.1000000E+01   0.9990000E+00     2
         1     1    -1     3   0.5630041E+04   0.1250000E+04   0.3882956E+04   0.3497024E+02    1   25    6  1  0.0000000E+00   0.5318251E+00   0.9990000E+00     2
         1     1    -1     3   0.5905094E+04   0.1500000E+04   0.3803548E+04   0.3497080E+02    1   25    7  1  0.0000000E+00   0.2141933E+00   0.9990000E+00     2
         1     1    -1     3   0.6184859E+04   0.1750000E+04   0.3768358E+04   0.3497060E+02    1   25    8  1  0.0000000E+00   0.7343160E-01   0.9990000E+00     2
         1     1    -1     3   0.6330458E+04   0.1866856E+04   0.3750000E+04   0.3496904E+02    1   26    8  1  0.4674250E+00   0.1000000E+01   0.9990000E+00     2
         1     1    -1     3   0.6493686E+04   0.2000000E+04   0.3729202E+04   0.3496846E+02    1   26    9  1  0.0000000E+00   0.9168097E+00   0.9990000E+00     2
         1     1    -1     3   0.6781057E+04   0.2250000E+04   0.3698674E+04   0.3496770E+02    1   26   10  1  0.0000000E+00   0.7946954E+00   0.9990000E+00     2
         1     1    -1     3   0.7212384E+04   0.2500000E+04   0.3632307E+04   0.3496545E+02    1   26   11  1  0.0000000E+00   0.5292289E+00   0.9990000E+00     2
         1     1    -1     3   0.7853124E+04   0.2750000E+04   0.3565021E+04   0.3496564E+02    1   26   12  1  0.0000000E+00   0.2600820E+00   0.9990000E+00     2
         1     1    -1     3   0.8330206E+04   0.2990222E+04   0.3500000E+04   0.3496554E+02    1   27   12  1  0.9608867E+00   0.1000000E+01   0.9990000E+00     2
         1     1    -1     3   0.8347115E+04   0.3000000E+04   0.3497689E+04   0.3496542E+02    1   27   13  1  0.0000000E+00   0.9907578E+00   0.9990000E+00     2
         1     1    -1     3   0.8762831E+04   0.3250000E+04   0.3423141E+04   0.3496547E+02    1   27   14  1  0.0000000E+00   0.6925651E+00   0.9990000E+00     2
         1     1    -1     3   0.9145401E+04   0.3500000E+04   0.3332258E+04   0.3496539E+02    1   27   15  1  0.0000000E+00   0.3290327E+00   0.9990000E+00     2
         1     1    -1     3   0.9348516E+04   0.3593330E+04   0.3250000E+04   0.3496521E+02    1   28   15  1  0.3733179E+00   0.1000000E+01   0.9990000E+00     2
         1     1    -1     3   0.9348516E+04   0.3593330E+04   0.3250000E+04   0.3496521E+02    1   28   15  1  0.3733179E+00   0.1000000E+01   0.9990000E+00     2
