MODPATH_PATHLINE_FILE 6 0                                                       
 1   0.0000000E+00
END HEADER
         1     1    -1     2   0.1826000E+04   0.6250000E+03   0.6375000E+04   0.3500000E+02    1   15    3  1  0.5000000E+00   0.5000000E+00   0.1000000E+01     1
         1     1    -1     2   0.2205349E+04   0.6365650E+03   0.6250000E+04   0.3497541E+02    1   16    3  1  0.5462600E+00   0.1000000E+01   0.9990000E+00     1
         1     1    -1     2   0.2778831E+04   0.6482842E+03   0.6000000E+04   0.3497422E+02    1   17    3  1  0.5931368E+00   0.1000000E+01   0.9990000E+00     1
         1     1    -1     2   0.3222208E+04   0.6457443E+03   0.5750000E+04   0.3497192E+02    1   18    3  1  0.5829771E+00   0.1000000E+01   0.9990000E+00     1
         1     1    -1     2   0.3594479E+04   0.6501262E+03   0.5500000E+04   0.3497106E+02    1   19    3  1  0.6005049E+00   0.1000000E+01   0.9990000E+00     1
         1     1    -1     2   0.3651000E+04   0.6522885E+03   0.5457529E+04   0.3497106E+02    1   19    3  1  0.6091537E+00   0.8301175E+00   0.9990000E+00     1
         1     1    -1     3   0.3651000E+04   0.6522885E+03   0.5457529E+04   0.3497106E+02    1   19    3  1  0.6091537E+00   0.8301175E+00   0.9990000E+00     2
         1     1    -1     3   0.4045423E+04   0.6610190E+03   0.5250000E+04   0.3496899E+02    1   20    3  1  0.6440759E+00   0.1000000E+01   0.9990000E+00     2
         1     1    -1     3   0.4487417E+04   0.6812259E+03   0.5000000E+04   0.3497288E+02    1   21    3  1  0.7249036E+00   0.1000000E+01   0.9990000E+00     2
         1     1    -1     3   0.4839011E+04   0.7142704E+03   0.4750000E+04   0.3496973E+02    1   22    3  1  0.8570815E+00   0.1000000E+01   0.9990000E+00     2
         1     1    -1     3   0.5110729E+04   0.7500000E+03   0.4566123E+04   0.3497328E+02    1   22    4  1  0.0000000E+00   0.2644926E+00   0.9990000E+00     2
         1     1    -1     3   0.5172423E+04   0.7590566E+03   0.4500000E+04   0.3497364E+02    1   23    4  1  0.3622621E-01   0.1000000E+01   0.9990000E+00     2
         1     1    -1     3   0.5442815E+04   0.8905037E+03   0.4250000E+04   0.3497438E+02    1   24    4  1  0.5620148E+00   0.1000000E+01   0.9990000E+00     2
         1     1    -1     3   0.5612386E+04   0.1000000E+04   0.4129015E+04   0.3497601E+02    1   24    5  1  0.0000000E+00   0.5160599E+00   0.9990000E+00     2
         1     1    -1     3   0.5805880E+04   0.1180537E+04   0.4000000E+04   0.3497611E+02    1   25    5  1  0.7221474E+00   0.1000000E+01   0.9990000E+00     2
         1     1    -1     3   0.5894365E+04   0.1250000E+04   0.3950420E+04   0.3497024E+02    1   25    6  1  0.0000000E+00   0.8016798E+00   0.9990000E+00     2
         1     1    -1     3   0.6255213E+04   0.1500000E+04   0.3864060E+04   0.3497080E+02    1   25    7  1  0.0000000E+00   0.4562413E+00   0.9990000E+00     2
         1     1    -1     3   0.6609886E+04   0.1750000E+04   0.3844574E+04   0.3497060E+02    1   25    8  1  0.0000000E+00   0.3782957E+00   0.9990000E+00     2
         1     1    -1     3   0.7023645E+04   0.2000000E+04   0.3831789E+04   0.3497177E+02    1   25    9  1  0.0000000E+00   0.3271556E+00   0.9990000E+00     2
         1     1    -1     3   0.7462987E+04   0.2250000E+04   0.3792129E+04   0.3496678E+02    1   25   10  1  0.0000000E+00   0.1685166E+00   0.9990000E+00     2
         1     1    -1     3   0.7600680E+04   0.2313823E+04   0.3750000E+04   0.3496770E+02    1   26   10  1  0.2552919E+00   0.1000000E+01   0.9990000E+00     2
         1     1    -1     3   0.8091827E+04   0.2500000E+04   0.3646369E+04   0.3496545E+02    1   26   11  1  0.0000000E+00   0.5854743E+00   0.9990000E+00     2
         1     1    -1     3   0.9072380E+04   0.2750000E+04   0.3566406E+04   0.3496564E+02    1   26   12  1  0.0000000E+00   0.2656254E+00   0.9990000E+00     2
         1     1    -1     3   0.9437367E+04   0.2868753E+04   0.3500000E+04   0.3496554E+02    1   27   12  1  0.4750139E+00   0.1000000E+01   0.9990000E+00     2
         1     1    -1     3   0.9929165E+04   0.3000000E+04   0.3407476E+04   0.3496542E+02    1   27   13  1  0.0000000E+00   0.6299038E+00   0.9990000E+00     2
         1     1    -1     3   0.1081355E+05   0.3250000E+04   0.3258029E+04   0.3496547E+02    1   27   14  1  0.0000000E+00   0.3211725E-01   0.9990000E+00     2
         1     1    -1     3   0.1085538E+05   0.3261829E+04   0.3250000E+04   0.3496519E+02    1   28   14  1  0.4731543E-01   0.1000000E+01   0.9990000E+00     2
         1     1    -1     3   0.1163760E+05   0.3500000E+04   0.3093719E+04   0.3496521E+02    1   28   15  1  0.0000000E+00   0.3748746E+00   0.9990000E+00     2
         1     1    -1     3   0.1207356E+05   0.3645922E+04   0.3000000E+04   0.3496569E+02    1   29   15  1  0.5836876E+00   0.1000000E+01   0.9990000E+00     2
         1     1    -1     3   0.1241283E+05   0.3750000E+04   0.2924541E+04   0.3496585E+02    1   29   16  1  0.0000000E+00   0.6981636E+00   0.9990000E+00     2
         1     1    -1     3   0.1367582E+05   0.3882021E+04   0.2750000E+04   0.3496563E+02    1   30   16  1  0.5280848E+00   0.1000000E+01   0.9990000E+00     2
         1     1    -1     3   0.1583326E+05   0.3887892E+04   0.2500000E+04   0.3496550E+02    1   31   16  1  0.5515686E+00   0.1000000E+01   0.9990000E+00     2
         1     1    -1     3   0.1835533E+05   0.3882310E+04   0.2250000E+04   0.3496575E+02    1   32   16  1  0.5292380E+00   0.1000000E+01   0.9990000E+00     2
         1     1    -1     3   0.2079827E+05   0.3845348E+04   0.2000000E+04   0.3496534E+02    1   33   16  1  0.3813913E+00   0.1000000E+01   0.9990000E+00     2
         1     1    -1     3   0.2247184E+05   0.3806990E+04   0.1750000E+04   0.3496548E+02    1   34   16  1  0.2279586E+00   0.1000000E+01   0.9990000E+00     2
         1     1    -1     3   0.2359912E+05   0.3750000E+04   0.1526741E+04   0.3496569E+02    1   34   15  1  0.1000000E+01   0.1069626E+00   0.9990000E+00     2
         1     1    -1     3   0.2372621E+05   0.3746251E+04   0.1500000E+04   0.3496559E+02    1   35   15  1  0.9850063E+00   0.1000000E+01   0.9990000E+00     2
         1     1    -1     3   0.2499767E+05   0.3653152E+04   0.1250000E+04   0.3496525E+02    1   36   15  1  0.6126093E+00   0.1000000E+01   0.9990000E+00     2
         1     1    -1     3   0.2626786E+05   0.3573275E+04   0.1000000E+04   0.3496507E+02    1   37   15  1  0.2931015E+00   0.1000000E+01   0.9990000E+00     2
         1     1    -1     3   0.2724518E+05   0.3536374E+04   0.7500000E+03   0.3496537E+02    1   38   15  1  0.1454958E+00   0.1000000E+01   0.9990000E+00     2
         1     1    -1     3   0.2782525E+05   0.3511379E+04   0.5000000E+03   0.3496568E+02    1   39   15  1  0.4551601E-01   0.1000000E+01   0.9990000E+00     2
         1     1    -1     3   0.2809845E+05   0.3503936E+04   0.2500000E+03   0.3496551E+02    1   40   15  1  0.1574216E-01   0.1000000E+01   0.9990000E+00     2
         1     1    -1     3   0.2809845E+05   0.3503936E+04   0.2500000E+03   0.3496551E+02    1   40   15  1  0.1574216E-01   0.1000000E+01   0.9990000E+00     2
