# DRN package for  MODFLOW-NWT, generated by Flopy.
        10         0
        10         0 # stress period 1
         open/close ./DRN_0000.dat
