# BAS6 package for  MODFLOW-NWT, generated by Flopy.
FREE
OPEN/CLOSE            ./ibound_layer_1.ref               1    (20I10) -1 ibound layer 1                
OPEN/CLOSE            ./ibound_layer_2.ref               1    (20I10) -1 ibound layer 2                
OPEN/CLOSE            ./ibound_layer_3.ref               1    (20I10) -1 ibound layer 3                
   -999.99
OPEN/CLOSE              ./strt_layer_1.ref               1     (FREE) -1 strt_layer_0                  
OPEN/CLOSE              ./strt_layer_2.ref               1     (FREE) -1 strt_layer_1                  
OPEN/CLOSE              ./strt_layer_3.ref               1     (FREE) -1 strt_layer_2                  
