# Well file for MODFLOW, generated by Flopy.
         1         0
         1         0
        1         1        10  .01000000000
         1         0
        1         1        10  1.0000000000
