MODPATH_PATHLINE_FILE 6 0                                                       
 1   0.0000000E+00
END HEADER
         1     1    -1     2   0.1826000E+04   0.6250000E+03   0.6375000E+04   0.3500000E+02    1   15    3  1  0.5000000E+00   0.5000000E+00   0.1000000E+01     1
         1     1    -1     3   0.1826000E+04   0.6250000E+03   0.6375000E+04   0.3500000E+02    1   15    3  1  0.5000000E+00   0.5000000E+00   0.1000000E+01     2
         1     1    -1     3   0.2233677E+04   0.6330609E+03   0.6250000E+04   0.3497541E+02    1   16    3  1  0.5322438E+00   0.1000000E+01   0.9990000E+00     2
         1     1    -1     3   0.2881560E+04   0.6357787E+03   0.6000000E+04   0.3497422E+02    1   17    3  1  0.5431147E+00   0.1000000E+01   0.9990000E+00     2
         1     1    -1     3   0.3401653E+04   0.6340591E+03   0.5750000E+04   0.3497192E+02    1   18    3  1  0.5362362E+00   0.1000000E+01   0.9990000E+00     2
         1     1    -1     3   0.3845740E+04   0.6386622E+03   0.5500000E+04   0.3497106E+02    1   19    3  1  0.5546488E+00   0.1000000E+01   0.9990000E+00     2
         1     1    -1     3   0.4215148E+04   0.6453104E+03   0.5250000E+04   0.3496899E+02    1   20    3  1  0.5812415E+00   0.1000000E+01   0.9990000E+00     2
         1     1    -1     3   0.4556714E+04   0.6583034E+03   0.5000000E+04   0.3497288E+02    1   21    3  1  0.6332136E+00   0.1000000E+01   0.9990000E+00     2
         1     1    -1     3   0.4825391E+04   0.6804434E+03   0.4750000E+04   0.3496973E+02    1   22    3  1  0.7217737E+00   0.1000000E+01   0.9990000E+00     2
         1     1    -1     3   0.5098637E+04   0.7187862E+03   0.4500000E+04   0.3497047E+02    1   23    3  1  0.8751448E+00   0.1000000E+01   0.9990000E+00     2
         1     1    -1     3   0.5177144E+04   0.7500000E+03   0.4424741E+04   0.3497364E+02    1   23    4  1  0.0000000E+00   0.6989653E+00   0.9990000E+00     2
         1     1    -1     3   0.5352452E+04   0.8423695E+03   0.4250000E+04   0.3497438E+02    1   24    4  1  0.3694780E+00   0.1000000E+01   0.9990000E+00     2
         1     1    -1     3   0.5563505E+04   0.1000000E+04   0.4073104E+04   0.3497601E+02    1   24    5  1  0.0000000E+00   0.2924156E+00   0.9990000E+00     2
         1     1    -1     3   0.5657895E+04   0.1092723E+04   0.4000000E+04   0.3497611E+02    1   25    5  1  0.3708914E+00   0.1000000E+01   0.9990000E+00     2
         1     1    -1     3   0.5819140E+04   0.1250000E+04   0.3888923E+04   0.3497024E+02    1   25    6  1  0.0000000E+00   0.5556924E+00   0.9990000E+00     2
         1     1    -1     3   0.6099793E+04   0.1500000E+04   0.3810337E+04   0.3497080E+02    1   25    7  1  0.0000000E+00   0.2413497E+00   0.9990000E+00     2
         1     1    -1     3   0.6386109E+04   0.1750000E+04   0.3777422E+04   0.3497060E+02    1   25    8  1  0.0000000E+00   0.1096877E+00   0.9990000E+00     2
         1     1    -1     3   0.6622387E+04   0.1932299E+04   0.3750000E+04   0.3496904E+02    1   26    8  1  0.7291979E+00   0.1000000E+01   0.9990000E+00     2
         1     1    -1     3   0.6707411E+04   0.2000000E+04   0.3739773E+04   0.3496846E+02    1   26    9  1  0.0000000E+00   0.9590930E+00   0.9990000E+00     2
         1     1    -1     3   0.7004637E+04   0.2250000E+04   0.3709434E+04   0.3496770E+02    1   26   10  1  0.0000000E+00   0.8377357E+00   0.9990000E+00     2
         1     1    -1     3   0.7442519E+04   0.2500000E+04   0.3639513E+04   0.3496545E+02    1   26   11  1  0.0000000E+00   0.5580527E+00   0.9990000E+00     2
         1     1    -1     3   0.8083571E+04   0.2750000E+04   0.3574537E+04   0.3496564E+02    1   26   12  1  0.0000000E+00   0.2981462E+00   0.9990000E+00     2
         1     1    -1     3   0.8586384E+04   0.3000000E+04   0.3510234E+04   0.3496555E+02    1   26   13  1  0.0000000E+00   0.4093500E-01   0.9990000E+00     2
         1     1    -1     3   0.8649446E+04   0.3033369E+04   0.3500000E+04   0.3496542E+02    1   27   13  1  0.1334742E+00   0.1000000E+01   0.9990000E+00     2
         1     1    -1     3   0.9019631E+04   0.3250000E+04   0.3438756E+04   0.3496547E+02    1   27   14  1  0.0000000E+00   0.7550246E+00   0.9990000E+00     2
         1     1    -1     3   0.9419857E+04   0.3500000E+04   0.3354439E+04   0.3496539E+02    1   27   15  1  0.0000000E+00   0.4177563E+00   0.9990000E+00     2
         1     1    -1     3   0.9749856E+04   0.3619494E+04   0.3250000E+04   0.3496521E+02    1   28   15  1  0.4779764E+00   0.1000000E+01   0.9990000E+00     2
         1     1    -1     3   0.1109844E+05   0.3658948E+04   0.3000000E+04   0.3496569E+02    1   29   15  1  0.6357905E+00   0.1000000E+01   0.9990000E+00     2
         1     1    -1     3   0.1306683E+05   0.3663048E+04   0.2750000E+04   0.3496502E+02    1   30   15  1  0.6521937E+00   0.1000000E+01   0.9990000E+00     2
         1     1    -1     3   0.1431039E+05   0.3659627E+04   0.2500000E+04   0.3496541E+02    1   31   15  1  0.6385085E+00   0.1000000E+01   0.9990000E+00     2
         1     1    -1     3   0.1600198E+05   0.3648354E+04   0.2250000E+04   0.3496557E+02    1   32   15  1  0.5934164E+00   0.1000000E+01   0.9990000E+00     2
         1     1    -1     3   0.1818638E+05   0.3638656E+04   0.2000000E+04   0.3496571E+02    1   33   15  1  0.5546262E+00   0.1000000E+01   0.9990000E+00     2
         1     1    -1     3   0.1958470E+05   0.3615522E+04   0.1750000E+04   0.3496569E+02    1   34   15  1  0.4620899E+00   0.1000000E+01   0.9990000E+00     2
         1     1    -1     3   0.2089976E+05   0.3594391E+04   0.1500000E+04   0.3496559E+02    1   35   15  1  0.3775634E+00   0.1000000E+01   0.9990000E+00     2
         1     1    -1     3   0.2240945E+05   0.3612676E+04   0.1250000E+04   0.3496525E+02    1   36   15  1  0.4507051E+00   0.1000000E+01   0.9990000E+00     2
         1     1    -1     3   0.2494033E+05   0.3629802E+04   0.1000000E+04   0.3496507E+02    1   37   15  1  0.5192103E+00   0.1000000E+01   0.9990000E+00     2
         1     1    -1     3   0.2645942E+05   0.3639911E+04   0.7500000E+03   0.3496537E+02    1   38   15  1  0.5596459E+00   0.1000000E+01   0.9990000E+00     2
         1     1    -1     3   0.2645942E+05   0.3639911E+04   0.7500000E+03   0.3496537E+02    1   38   15  1  0.5596459E+00   0.1000000E+01   0.9990000E+00     2
