MODPATH_PATHLINE_FILE 6 0                                                       
 1   0.0000000E+00
END HEADER
         1     1    -1     2   0.1826000E+04   0.6250000E+03   0.6375000E+04   0.3500000E+02    1   15    3  1  0.5000000E+00   0.5000000E+00   0.1000000E+01     1
         1     1    -1     3   0.1826000E+04   0.6250000E+03   0.6375000E+04   0.3500000E+02    1   15    3  1  0.5000000E+00   0.5000000E+00   0.1000000E+01     2
         1     1    -1     3   0.2464672E+04   0.6405599E+03   0.6250000E+04   0.3497541E+02    1   16    3  1  0.5622398E+00   0.1000000E+01   0.9990000E+00     2
         1     1    -1     3   0.3391453E+04   0.6480966E+03   0.6000000E+04   0.3497422E+02    1   17    3  1  0.5923862E+00   0.1000000E+01   0.9990000E+00     2
         1     1    -1     3   0.4074493E+04   0.6489771E+03   0.5750000E+04   0.3497192E+02    1   18    3  1  0.5959083E+00   0.1000000E+01   0.9990000E+00     2
         1     1    -1     3   0.4625514E+04   0.6544675E+03   0.5500000E+04   0.3497106E+02    1   19    3  1  0.6178698E+00   0.1000000E+01   0.9990000E+00     2
         1     1    -1     3   0.5077858E+04   0.6672753E+03   0.5250000E+04   0.3496899E+02    1   20    3  1  0.6691010E+00   0.1000000E+01   0.9990000E+00     2
         1     1    -1     3   0.5501775E+04   0.6939387E+03   0.5000000E+04   0.3497288E+02    1   21    3  1  0.7757549E+00   0.1000000E+01   0.9990000E+00     2
         1     1    -1     3   0.5835089E+04   0.7262333E+03   0.4750000E+04   0.3496973E+02    1   22    3  1  0.9049334E+00   0.1000000E+01   0.9990000E+00     2
         1     1    -1     3   0.5988868E+04   0.7500000E+03   0.4638929E+04   0.3497328E+02    1   22    4  1  0.0000000E+00   0.5557168E+00   0.9990000E+00     2
         1     1    -1     3   0.6111577E+04   0.7707617E+03   0.4500000E+04   0.3497364E+02    1   23    4  1  0.8304656E-01   0.1000000E+01   0.9990000E+00     2
         1     1    -1     3   0.6359149E+04   0.9204346E+03   0.4250000E+04   0.3497438E+02    1   24    4  1  0.6817383E+00   0.1000000E+01   0.9990000E+00     2
         1     1    -1     3   0.6457848E+04   0.1000000E+04   0.4171282E+04   0.3497601E+02    1   24    5  1  0.0000000E+00   0.6851276E+00   0.9990000E+00     2
         1     1    -1     3   0.6667850E+04   0.1250000E+04   0.4006311E+04   0.3497641E+02    1   24    6  1  0.0000000E+00   0.2524329E-01   0.9990000E+00     2
         1     1    -1     3   0.6693815E+04   0.1289167E+04   0.4000000E+04   0.3497024E+02    1   25    6  1  0.1566693E+00   0.1000000E+01   0.9990000E+00     2
         1     1    -1     3   0.6913493E+04   0.1500000E+04   0.3958086E+04   0.3497080E+02    1   25    7  1  0.0000000E+00   0.8323454E+00   0.9990000E+00     2
         1     1    -1     3   0.7153438E+04   0.1733445E+04   0.4000000E+04   0.3497545E+02    1   24    7  1  0.9337793E+00   0.0000000E+00   0.9990000E+00     2
         1     1    -1     3   0.7170596E+04   0.1750000E+04   0.4003988E+04   0.3496976E+02    1   24    8  1  0.0000000E+00   0.1595285E-01   0.9990000E+00     2
         1     1    -1     3   0.7481565E+04   0.2000000E+04   0.4070211E+04   0.3497202E+02    1   24    9  1  0.0000000E+00   0.2808443E+00   0.9990000E+00     2
         1     1    -1     3   0.7777328E+04   0.2250000E+04   0.4107442E+04   0.3497008E+02    1   24   10  1  0.0000000E+00   0.4297675E+00   0.9990000E+00     2
         1     1    -1     3   0.8135600E+04   0.2500000E+04   0.4101421E+04   0.3496649E+02    1   24   11  1  0.0000000E+00   0.4056834E+00   0.9990000E+00     2
         1     1    -1     3   0.8553132E+04   0.2750000E+04   0.4096879E+04   0.3496633E+02    1   24   12  1  0.0000000E+00   0.3875159E+00   0.9990000E+00     2
         1     1    -1     3   0.8952926E+04   0.3000000E+04   0.4080621E+04   0.3496660E+02    1   24   13  1  0.0000000E+00   0.3224829E+00   0.9990000E+00     2
         1     1    -1     3   0.9330207E+04   0.3250000E+04   0.4054713E+04   0.3496617E+02    1   24   14  1  0.0000000E+00   0.2188519E+00   0.9990000E+00     2
         1     1    -1     3   0.9556572E+04   0.3398662E+04   0.4000000E+04   0.3496561E+02    1   25   14  1  0.5946475E+00   0.1000000E+01   0.9990000E+00     2
         1     1    -1     3   0.9665443E+04   0.3500000E+04   0.3973959E+04   0.3496530E+02    1   25   15  1  0.0000000E+00   0.8958378E+00   0.9990000E+00     2
         1     1    -1     3   0.9665443E+04   0.3500000E+04   0.3973959E+04   0.3496530E+02    1   25   15  1  0.0000000E+00   0.8958378E+00   0.9990000E+00     2
