# RCH for MODFLOW, generated by Flopy.
         3         0
         1        -1 # Stress period 1
CONSTANT    1.359499E-04                           #rech_1                        
         1        -1 # Stress period 2
CONSTANT    9.137383E-05                           #rech_2                        
        -1        -1 # Stress period 3
