# PCG for MODFLOW, generated by Flopy.
100 25 1 9999
1e-05 0.1 1.0 2 5 0 0.7 
