pcf
* control data
             restart          estimation
        58       767         4         0        22         0
         4         4              single               point         1         0         0          noobsreref
   2.000000E+01  -3.000000E+00   3.000000E-01   1.000000E-02        -7       999          lamforgive        noderforgive
   1.000000E+01   1.000000E+01   1.000000E-03         0         0
   1.000000E-01         1   1.100000E+00               noaui          nosenreuse        noboundscale
        -1   1.000000E-02         3         3   1.000000E-02         3   0.000000E+00         1  -1.000000E+00
         0         0         0         0             jcosave          verboserec          jcosaveitn          reisaveitn          parsaveitn        noparsaverun
* singular value decomposition
         1
  10000000    1.000000E-06
1
* parameter groups
hk                      relative              1.0000000000E-02       0.0  switch                2.0000000000E+00       parabolic             1.0000000000E-05      5.0000000000E-01       smaller              
w0                      relative              1.0000000000E-02       0.0  switch                2.0000000000E+00       parabolic             1.0000000000E-05      5.0000000000E-01       smaller              
w1                      relative              1.0000000000E-02       0.0  switch                2.0000000000E+00       parabolic             1.0000000000E-05      5.0000000000E-01       smaller              
rch                     relative              1.0000000000E-02       0.0  switch                2.0000000000E+00       parabolic             1.0000000000E-05      5.0000000000E-01       smaller
* parameter data
rch_0                  log                    factor                1.0000000000E+00      5.0000000000E-01      2.0000000000E+00       rch                   1.0000000000E+00      0.0000000000E+00      1          
rch_1                  log                    factor                1.0000000000E+00      5.0000000000E-01      2.0000000000E+00       rch                   1.0000000000E+00      0.0000000000E+00      1          
hk00                   log                    factor                5.0000000000E+00      5.0000000000E-01      5.0000000000E+01       hk                    1.0000000000E+00      0.0000000000E+00      1          
hk01                   log                    factor                5.0000000000E+00      5.0000000000E-01      5.0000000000E+01       hk                    1.0000000000E+00      0.0000000000E+00      1          
hk02                   log                    factor                5.0000000000E+00      5.0000000000E-01      5.0000000000E+01       hk                    1.0000000000E+00      0.0000000000E+00      1          
hk03                   log                    factor                5.0000000000E+00      5.0000000000E-01      5.0000000000E+01       hk                    1.0000000000E+00      0.0000000000E+00      1          
hk04                   log                    factor                5.0000000000E+00      5.0000000000E-01      5.0000000000E+01       hk                    1.0000000000E+00      0.0000000000E+00      1          
hk05                   log                    factor                5.0000000000E+00      5.0000000000E-01      5.0000000000E+01       hk                    1.0000000000E+00      0.0000000000E+00      1          
hk06                   log                    factor                5.0000000000E+00      5.0000000000E-01      5.0000000000E+01       hk                    1.0000000000E+00      0.0000000000E+00      1          
hk07                   log                    factor                5.0000000000E+00      5.0000000000E-01      5.0000000000E+01       hk                    1.0000000000E+00      0.0000000000E+00      1          
hk08                   log                    factor                5.0000000000E+00      5.0000000000E-01      5.0000000000E+01       hk                    1.0000000000E+00      0.0000000000E+00      1          
hk09                   log                    factor                5.0000000000E+00      5.0000000000E-01      5.0000000000E+01       hk                    1.0000000000E+00      0.0000000000E+00      1          
hk10                   log                    factor                5.0000000000E+00      5.0000000000E-01      5.0000000000E+01       hk                    1.0000000000E+00      0.0000000000E+00      1          
hk11                   log                    factor                5.0000000000E+00      5.0000000000E-01      5.0000000000E+01       hk                    1.0000000000E+00      0.0000000000E+00      1          
hk12                   log                    factor                5.0000000000E+00      5.0000000000E-01      5.0000000000E+01       hk                    1.0000000000E+00      0.0000000000E+00      1          
hk13                   log                    factor                5.0000000000E+00      5.0000000000E-01      5.0000000000E+01       hk                    1.0000000000E+00      0.0000000000E+00      1          
hk14                   log                    factor                5.0000000000E+00      5.0000000000E-01      5.0000000000E+01       hk                    1.0000000000E+00      0.0000000000E+00      1          
hk15                   log                    factor                5.0000000000E+00      5.0000000000E-01      5.0000000000E+01       hk                    1.0000000000E+00      0.0000000000E+00      1          
hk16                   log                    factor                5.0000000000E+00      5.0000000000E-01      5.0000000000E+01       hk                    1.0000000000E+00      0.0000000000E+00      1          
hk17                   log                    factor                5.0000000000E+00      5.0000000000E-01      5.0000000000E+01       hk                    1.0000000000E+00      0.0000000000E+00      1          
hk18                   log                    factor                5.0000000000E+00      5.0000000000E-01      5.0000000000E+01       hk                    1.0000000000E+00      0.0000000000E+00      1          
hk19                   log                    factor                5.0000000000E+00      5.0000000000E-01      5.0000000000E+01       hk                    1.0000000000E+00      0.0000000000E+00      1          
hk20                   log                    factor                5.0000000000E+00      5.0000000000E-01      5.0000000000E+01       hk                    1.0000000000E+00      0.0000000000E+00      1          
hk21                   log                    factor                5.0000000000E+00      5.0000000000E-01      5.0000000000E+01       hk                    1.0000000000E+00      0.0000000000E+00      1          
hk22                   log                    factor                5.0000000000E+00      5.0000000000E-01      5.0000000000E+01       hk                    1.0000000000E+00      0.0000000000E+00      1          
hk23                   log                    factor                5.0000000000E+00      5.0000000000E-01      5.0000000000E+01       hk                    1.0000000000E+00      0.0000000000E+00      1          
hk24                   log                    factor                5.0000000000E+00      5.0000000000E-01      5.0000000000E+01       hk                    1.0000000000E+00      0.0000000000E+00      1          
hk25                   log                    factor                5.0000000000E+00      5.0000000000E-01      5.0000000000E+01       hk                    1.0000000000E+00      0.0000000000E+00      1          
hk26                   log                    factor                5.0000000000E+00      5.0000000000E-01      5.0000000000E+01       hk                    1.0000000000E+00      0.0000000000E+00      1          
hk27                   log                    factor                5.0000000000E+00      5.0000000000E-01      5.0000000000E+01       hk                    1.0000000000E+00      0.0000000000E+00      1          
hk28                   log                    factor                5.0000000000E+00      5.0000000000E-01      5.0000000000E+01       hk                    1.0000000000E+00      0.0000000000E+00      1          
hk29                   log                    factor                5.0000000000E+00      5.0000000000E-01      5.0000000000E+01       hk                    1.0000000000E+00      0.0000000000E+00      1          
hk30                   log                    factor                5.0000000000E+00      5.0000000000E-01      5.0000000000E+01       hk                    1.0000000000E+00      0.0000000000E+00      1          
hk31                   log                    factor                5.0000000000E+00      5.0000000000E-01      5.0000000000E+01       hk                    1.0000000000E+00      0.0000000000E+00      1          
hk32                   log                    factor                5.0000000000E+00      5.0000000000E-01      5.0000000000E+01       hk                    1.0000000000E+00      0.0000000000E+00      1          
hk33                   log                    factor                5.0000000000E+00      5.0000000000E-01      5.0000000000E+01       hk                    1.0000000000E+00      0.0000000000E+00      1          
hk34                   log                    factor                5.0000000000E+00      5.0000000000E-01      5.0000000000E+01       hk                    1.0000000000E+00      0.0000000000E+00      1          
hk35                   log                    factor                5.0000000000E+00      5.0000000000E-01      5.0000000000E+01       hk                    1.0000000000E+00      0.0000000000E+00      1          
hk36                   log                    factor                5.0000000000E+00      5.0000000000E-01      5.0000000000E+01       hk                    1.0000000000E+00      0.0000000000E+00      1          
hk37                   log                    factor                5.0000000000E+00      5.0000000000E-01      5.0000000000E+01       hk                    1.0000000000E+00      0.0000000000E+00      1          
hk38                   log                    factor                5.0000000000E+00      5.0000000000E-01      5.0000000000E+01       hk                    1.0000000000E+00      0.0000000000E+00      1          
hk39                   log                    factor                5.0000000000E+00      5.0000000000E-01      5.0000000000E+01       hk                    1.0000000000E+00      0.0000000000E+00      1          
hk40                   log                    factor                5.0000000000E+00      5.0000000000E-01      5.0000000000E+01       hk                    1.0000000000E+00      0.0000000000E+00      1          
hk41                   log                    factor                5.0000000000E+00      5.0000000000E-01      5.0000000000E+01       hk                    1.0000000000E+00      0.0000000000E+00      1          
hk42                   log                    factor                5.0000000000E+00      5.0000000000E-01      5.0000000000E+01       hk                    1.0000000000E+00      0.0000000000E+00      1          
hk43                   log                    factor                5.0000000000E+00      5.0000000000E-01      5.0000000000E+01       hk                    1.0000000000E+00      0.0000000000E+00      1          
w0_r09_c16             log                    factor                1.0000000000E+00      5.0000000000E-01      2.0000000000E+00       w0                    1.0000000000E+00      0.0000000000E+00      1          
w0_r11_c13             log                    factor                1.0000000000E+00      5.0000000000E-01      2.0000000000E+00       w0                    1.0000000000E+00      0.0000000000E+00      1          
w0_r20_c14             log                    factor                1.0000000000E+00      5.0000000000E-01      2.0000000000E+00       w0                    1.0000000000E+00      0.0000000000E+00      1          
w0_r26_c10             log                    factor                1.0000000000E+00      5.0000000000E-01      2.0000000000E+00       w0                    1.0000000000E+00      0.0000000000E+00      1          
w0_r29_c06             log                    factor                1.0000000000E+00      5.0000000000E-01      2.0000000000E+00       w0                    1.0000000000E+00      0.0000000000E+00      1          
w0_r34_c12             log                    factor                1.0000000000E+00      5.0000000000E-01      2.0000000000E+00       w0                    1.0000000000E+00      0.0000000000E+00      1          
w1_r09_c16             log                    factor                1.0000000000E+00      5.0000000000E-01      2.0000000000E+00       w1                    1.0000000000E+00      0.0000000000E+00      1          
w1_r11_c13             log                    factor                1.0000000000E+00      5.0000000000E-01      2.0000000000E+00       w1                    1.0000000000E+00      0.0000000000E+00      1          
w1_r20_c14             log                    factor                1.0000000000E+00      5.0000000000E-01      2.0000000000E+00       w1                    1.0000000000E+00      0.0000000000E+00      1          
w1_r26_c10             log                    factor                1.0000000000E+00      5.0000000000E-01      2.0000000000E+00       w1                    1.0000000000E+00      0.0000000000E+00      1          
w1_r29_c06             log                    factor                1.0000000000E+00      5.0000000000E-01      2.0000000000E+00       w1                    1.0000000000E+00      0.0000000000E+00      1          
w1_r34_c12             log                    factor                1.0000000000E+00      5.0000000000E-01      2.0000000000E+00       w1                    1.0000000000E+00      0.0000000000E+00      1
* observation groups
calflux              
calhead              
flx_constan          
flx_in-out           
flx_percent          
flx_recharg          
flx_river_l          
flx_storage          
flx_total            
flx_wells            
foreflux             
forehead             
foretrav             
pothead              
vol_constan          
vol_in-out           
vol_percent          
vol_recharg          
vol_river_l          
vol_storage          
vol_total            
vol_wells            
* observation data
flx_constan_19700102  -4.0738390000E+02     0.0000000000E+00       flx_constan          
flx_in-out_19700102   -1.3731900000E+01     0.0000000000E+00       flx_in-out           
flx_percent_19700102  -2.2000000000E-01     0.0000000000E+00       flx_percent          
flx_recharg_19700102  6.0048000000E+03      0.0000000000E+00       flx_recharg          
flx_river_l_19700102  -3.7060270000E+03     5.0000000000E-02       calflux              
flx_storage_19700102  0.0000000000E+00      0.0000000000E+00       flx_storage          
flx_total_19700102    -1.3731930000E+01     0.0000000000E+00       flx_total            
flx_wells_19700102    -1.9051200000E+03     0.0000000000E+00       flx_wells            
flx_constan_19750101  -3.5414510000E+02     0.0000000000E+00       flx_constan          
flx_in-out_19750101   6.4450000000E-01      0.0000000000E+00       flx_in-out           
flx_percent_19750101  9.9999998000E-03      0.0000000000E+00       flx_percent          
flx_recharg_19750101  3.9093750000E+03      0.0000000000E+00       flx_recharg          
flx_river_l_19750101  -2.6769900000E+03     0.0000000000E+00       foreflux             
flx_storage_19750101  1.5038040000E+03      0.0000000000E+00       flx_storage          
flx_total_19750101    6.4453120000E-01      0.0000000000E+00       flx_total            
flx_wells_19750101    -2.3814000000E+03     0.0000000000E+00       flx_wells            
flx_constan_19750102  -1.7277040000E+02     0.0000000000E+00       flx_constan          
flx_in-out_19750102   3.6040000000E-01      0.0000000000E+00       flx_in-out           
flx_percent_19750102  9.9999998000E-03      0.0000000000E+00       flx_percent          
flx_recharg_19750102  3.9093750000E+03      0.0000000000E+00       flx_recharg          
flx_river_l_19750102  -1.3548440000E+03     0.0000000000E+00       flx_river_l          
flx_storage_19750102  0.0000000000E+00      0.0000000000E+00       flx_storage          
flx_total_19750102    3.6035160000E-01      0.0000000000E+00       flx_total            
flx_wells_19750102    -2.3814000000E+03     0.0000000000E+00       flx_wells            
pr01c01_19700102      2.7321592331E+01      0.0000000000E+00       pothead              
pr01c02_19700102      2.7222436905E+01      0.0000000000E+00       pothead              
pr01c03_19700102      2.6994316101E+01      0.0000000000E+00       pothead              
pr01c04_19700102      2.6603994370E+01      0.0000000000E+00       pothead              
pr01c05_19700102      2.6180116653E+01      0.0000000000E+00       pothead              
pr01c06_19700102      2.5715911865E+01      0.0000000000E+00       pothead              
pr01c07_19700102      2.5092239380E+01      0.0000000000E+00       pothead              
pr01c08_19700102      2.4600421906E+01      0.0000000000E+00       pothead              
pr01c09_19700102      2.4001533508E+01      0.0000000000E+00       pothead              
pr01c10_19700102      2.3361339569E+01      0.0000000000E+00       pothead              
pr01c11_19700102      2.2687923431E+01      0.0000000000E+00       pothead              
pr01c12_19700102      2.2021255493E+01      0.0000000000E+00       pothead              
pr01c13_19700102      2.1348047256E+01      0.0000000000E+00       pothead              
pr01c14_19700102      2.0667251587E+01      0.0000000000E+00       pothead              
pr01c15_19700102      2.0111572266E+01      0.0000000000E+00       pothead              
pr01c16_19700102      2.0095746994E+01      0.0000000000E+00       pothead              
pr01c17_19700102      2.0131402969E+01      0.0000000000E+00       pothead              
pr01c18_19700102      2.0159688950E+01      0.0000000000E+00       pothead              
pr01c19_19700102      2.0183012009E+01      0.0000000000E+00       pothead              
pr01c20_19700102      2.0204006195E+01      0.0000000000E+00       pothead              
pr02c01_19700102      2.7360000610E+01      0.0000000000E+00       pothead              
pr02c02_19700102      2.7248521805E+01      0.0000000000E+00       pothead              
pr02c03_19700102      2.7016424179E+01      0.0000000000E+00       pothead              
pr02c04_19700102      2.6602771759E+01      0.0000000000E+00       pothead              
pr02c05_19700102      2.6215572357E+01      0.0000000000E+00       pothead              
pr02c06_19700102      2.5736295700E+01      0.0000000000E+00       pothead              
pr02c07_19700102      2.5118001938E+01      0.0000000000E+00       pothead              
pr02c08_19700102      2.4579841614E+01      0.0000000000E+00       pothead              
pr02c09_19700102      2.3998693466E+01      0.0000000000E+00       pothead              
pr02c10_19700102      2.3287481308E+01      0.0000000000E+00       pothead              
pr02c11_19700102      2.2598859787E+01      0.0000000000E+00       pothead              
pr02c12_19700102      2.1941543579E+01      0.0000000000E+00       pothead              
pr02c13_19700102      2.1260164261E+01      0.0000000000E+00       pothead              
pr02c14_19700102      2.0525417328E+01      0.0000000000E+00       pothead              
pr02c15_19700102      1.9895259857E+01      0.0000000000E+00       pothead              
pr02c16_19700102      1.9970897675E+01      0.0000000000E+00       pothead              
pr02c17_19700102      2.0053468704E+01      0.0000000000E+00       pothead              
pr02c18_19700102      2.0105348587E+01      0.0000000000E+00       pothead              
pr02c19_19700102      2.0135017395E+01      0.0000000000E+00       pothead              
pr02c20_19700102      2.0156454086E+01      0.0000000000E+00       pothead              
pr03c01_19700102      2.7417373657E+01      0.0000000000E+00       pothead              
pr03c02_19700102      2.7312408447E+01      0.0000000000E+00       pothead              
pr03c03_19700102      2.7060319901E+01      0.0000000000E+00       pothead              
pr03c04_19700102      2.6636644363E+01      0.0000000000E+00       pothead              
pr03c05_19700102      2.6264688492E+01      0.0000000000E+00       pothead              
pr03c06_19700102      2.5773916245E+01      0.0000000000E+00       pothead              
pr03c07_19700102      2.5116905212E+01      0.0000000000E+00       pothead              
pr03c08_19700102      2.4583965302E+01      0.0000000000E+00       pothead              
pr03c09_19700102      2.3930131912E+01      0.0000000000E+00       pothead              
cr03c10_19700102      2.2331451233E+01      5.0000000000E+00       calhead              
fr03c10_19750101      2.2963123322E+01      0.0000000000E+00       forehead             
pr03c11_19700102      2.2459157944E+01      0.0000000000E+00       pothead              
pr03c12_19700102      2.1790889740E+01      0.0000000000E+00       pothead              
pr03c13_19700102      2.1062675476E+01      0.0000000000E+00       pothead              
pr03c14_19700102      2.0350891113E+01      0.0000000000E+00       pothead              
pr03c15_19700102      1.9678890228E+01      0.0000000000E+00       pothead              
cr03c16_19700102      1.8526869298E+01      5.0000000000E+00       calhead              
fr03c16_19750101      1.9748100281E+01      0.0000000000E+00       forehead             
pr03c17_19700102      1.9918922424E+01      0.0000000000E+00       pothead              
pr03c18_19700102      1.9987602234E+01      0.0000000000E+00       pothead              
pr03c19_19700102      2.0033418655E+01      0.0000000000E+00       pothead              
pr03c20_19700102      2.0061098099E+01      0.0000000000E+00       pothead              
pr04c01_19700102      2.7536098480E+01      0.0000000000E+00       pothead              
pr04c02_19700102      2.7414091110E+01      0.0000000000E+00       pothead              
pr04c03_19700102      2.7147762299E+01      0.0000000000E+00       pothead              
pr04c04_19700102      2.6724952698E+01      0.0000000000E+00       pothead              
pr04c05_19700102      2.6321117401E+01      0.0000000000E+00       pothead              
pr04c06_19700102      2.5839908600E+01      0.0000000000E+00       pothead              
pr04c07_19700102      2.5137563705E+01      0.0000000000E+00       pothead              
pr04c08_19700102      2.4523391724E+01      0.0000000000E+00       pothead              
cr04c09_19700102      2.4412636891E+01      5.0000000000E+00       calhead              
fr04c09_19750101      2.3601202011E+01      0.0000000000E+00       forehead             
pr04c10_19700102      2.2989685059E+01      0.0000000000E+00       pothead              
pr04c11_19700102      2.2219573975E+01      0.0000000000E+00       pothead              
pr04c12_19700102      2.1551904678E+01      0.0000000000E+00       pothead              
pr04c13_19700102      2.0858663559E+01      0.0000000000E+00       pothead              
pr04c14_19700102      2.0172714233E+01      0.0000000000E+00       pothead              
pr04c15_19700102      1.9448451996E+01      0.0000000000E+00       pothead              
pr04c16_19700102      1.9592523575E+01      0.0000000000E+00       pothead              
pr04c17_19700102      1.9751010895E+01      0.0000000000E+00       pothead              
pr04c18_19700102      1.9830387115E+01      0.0000000000E+00       pothead              
pr04c19_19700102      1.9888147354E+01      0.0000000000E+00       pothead              
pr04c20_19700102      1.9917407990E+01      0.0000000000E+00       pothead              
pr05c01_19700102      2.7700271606E+01      0.0000000000E+00       pothead              
pr05c02_19700102      2.7547292709E+01      0.0000000000E+00       pothead              
pr05c03_19700102      2.7259077072E+01      0.0000000000E+00       pothead              
pr05c04_19700102      2.6860155106E+01      0.0000000000E+00       pothead              
pr05c05_19700102      2.6426671982E+01      0.0000000000E+00       pothead              
pr05c06_19700102      2.5875249863E+01      0.0000000000E+00       pothead              
pr05c07_19700102      2.5170738220E+01      0.0000000000E+00       pothead              
pr05c08_19700102      2.4541376114E+01      0.0000000000E+00       pothead              
pr05c09_19700102      2.3634815216E+01      0.0000000000E+00       pothead              
pr05c10_19700102      2.2750610352E+01      0.0000000000E+00       pothead              
pr05c11_19700102      2.2006704330E+01      0.0000000000E+00       pothead              
pr05c12_19700102      2.1350198746E+01      0.0000000000E+00       pothead              
pr05c13_19700102      2.0650276184E+01      0.0000000000E+00       pothead              
pr05c14_19700102      1.9953388214E+01      0.0000000000E+00       pothead              
pr05c15_19700102      1.9221408844E+01      0.0000000000E+00       pothead              
pr05c16_19700102      1.9362951279E+01      0.0000000000E+00       pothead              
pr05c17_19700102      1.9487371445E+01      0.0000000000E+00       pothead              
pr05c18_19700102      1.9623666763E+01      0.0000000000E+00       pothead              
pr05c19_19700102      1.9692419052E+01      0.0000000000E+00       pothead              
pr05c20_19700102      1.9734598160E+01      0.0000000000E+00       pothead              
pr06c01_19700102      2.7848550797E+01      0.0000000000E+00       pothead              
pr06c02_19700102      2.7741338730E+01      0.0000000000E+00       pothead              
pr06c03_19700102      2.7442464828E+01      0.0000000000E+00       pothead              
pr06c04_19700102      2.7035776138E+01      0.0000000000E+00       pothead              
pr06c05_19700102      2.6545513153E+01      0.0000000000E+00       pothead              
pr06c06_19700102      2.5940898895E+01      0.0000000000E+00       pothead              
pr06c07_19700102      2.5219524384E+01      0.0000000000E+00       pothead              
pr06c08_19700102      2.4349617004E+01      0.0000000000E+00       pothead              
pr06c09_19700102      2.3539403915E+01      0.0000000000E+00       pothead              
pr06c10_19700102      2.2546806335E+01      0.0000000000E+00       pothead              
pr06c11_19700102      2.1711006165E+01      0.0000000000E+00       pothead              
pr06c12_19700102      2.1080938339E+01      0.0000000000E+00       pothead              
pr06c13_19700102      2.0406509399E+01      0.0000000000E+00       pothead              
pr06c14_19700102      1.9742202759E+01      0.0000000000E+00       pothead              
pr06c15_19700102      1.9000244141E+01      0.0000000000E+00       pothead              
pr06c16_19700102      1.9090976715E+01      0.0000000000E+00       pothead              
pr06c17_19700102      1.9226236343E+01      0.0000000000E+00       pothead              
pr06c18_19700102      1.9359682083E+01      0.0000000000E+00       pothead              
pr06c19_19700102      1.9483791351E+01      0.0000000000E+00       pothead              
pr06c20_19700102      1.9533222198E+01      0.0000000000E+00       pothead              
pr07c01_19700102      2.8005962372E+01      0.0000000000E+00       pothead              
pr07c02_19700102      2.7899152756E+01      0.0000000000E+00       pothead              
pr07c03_19700102      2.7668024063E+01      0.0000000000E+00       pothead              
pr07c04_19700102      2.7239688873E+01      0.0000000000E+00       pothead              
pr07c05_19700102      2.6708602905E+01      0.0000000000E+00       pothead              
pr07c06_19700102      2.5956073761E+01      0.0000000000E+00       pothead              
pr07c07_19700102      2.5227157593E+01      0.0000000000E+00       pothead              
pr07c08_19700102      2.4166631699E+01      0.0000000000E+00       pothead              
pr07c09_19700102      2.3232864380E+01      0.0000000000E+00       pothead              
pr07c10_19700102      2.2184228897E+01      0.0000000000E+00       pothead              
pr07c11_19700102      2.1406154633E+01      0.0000000000E+00       pothead              
pr07c12_19700102      2.0762905121E+01      0.0000000000E+00       pothead              
pr07c13_19700102      2.0135526657E+01      0.0000000000E+00       pothead              
pr07c14_19700102      1.9507955551E+01      0.0000000000E+00       pothead              
pr07c15_19700102      1.8760879517E+01      0.0000000000E+00       pothead              
pr07c16_19700102      1.8730216980E+01      0.0000000000E+00       pothead              
pr07c17_19700102      1.8911773682E+01      0.0000000000E+00       pothead              
pr07c18_19700102      1.9093345642E+01      0.0000000000E+00       pothead              
pr07c19_19700102      1.9230995178E+01      0.0000000000E+00       pothead              
pr07c20_19700102      1.9302423477E+01      0.0000000000E+00       pothead              
pr08c01_19700102      2.8259475708E+01      0.0000000000E+00       pothead              
pr08c02_19700102      2.8129283905E+01      0.0000000000E+00       pothead              
pr08c03_19700102      2.7913660049E+01      0.0000000000E+00       pothead              
pr08c04_19700102      2.7536684036E+01      0.0000000000E+00       pothead              
pr08c05_19700102      2.6850955963E+01      0.0000000000E+00       pothead              
pr08c06_19700102      2.6017187119E+01      0.0000000000E+00       pothead              