# GHB package for  MODFLOW-NWT, generated by Flopy.
        30         0
        30         0 # stress period 1
         1        40         6            33.5            1000.0
         1        40         7            33.5            1000.0
         1        40         8            33.5            1000.0
         1        40         9            33.5            1000.0
         1        40        10            33.5            1000.0
         1        40        11            33.5            1000.0
         1        40        12            33.5            1000.0
         1        40        13            33.5            1000.0
         1        40        14            33.5            1000.0
         1        40        15            33.5            1000.0
         2        40         6            33.5            1000.0
         2        40         7            33.5            1000.0
         2        40         8            33.5            1000.0
         2        40         9            33.5            1000.0
         2        40        10            33.5            1000.0
         2        40        11            33.5            1000.0
         2        40        12            33.5            1000.0
         2        40        13            33.5            1000.0
         2        40        14            33.5            1000.0
         2        40        15            33.5            1000.0
         3        40         6            33.5            1000.0
         3        40         7            33.5            1000.0
         3        40         8            33.5            1000.0
         3        40         9            33.5            1000.0
         3        40        10            33.5            1000.0
         3        40        11            33.5            1000.0
         3        40        12            33.5            1000.0
         3        40        13            33.5            1000.0
         3        40        14            33.5            1000.0
         3        40        15            33.5            1000.0
        30         0 # stress period 2
         1        40         6            33.5            70.0
         1        40         7            33.5            70.0
         1        40         8            33.5            70.0
         1        40         9            33.5            70.0
         1        40        10            33.5            70.0
         1        40        11            33.5            70.0
         1        40        12            33.5            70.0
         1        40        13            33.5            70.0
         1        40        14            33.5            70.0
         1        40        15            33.5            70.0
         2        40         6            33.5            70.0
         2        40         7            33.5            70.0
         2        40         8            33.5            70.0
         2        40         9            33.5            70.0
         2        40        10            33.5            70.0
         2        40        11            33.5            70.0
         2        40        12            33.5            70.0
         2        40        13            33.5            70.0
         2        40        14            33.5            70.0
         2        40        15            33.5            70.0
         3        40         6            33.5            70.0
         3        40         7            33.5            70.0
         3        40         8            33.5            70.0
         3        40         9            33.5            70.0
         3        40        10            33.5            70.0
         3        40        11            33.5            70.0
         3        40        12            33.5            70.0
         3        40        13            33.5            70.0
         3        40        14            33.5            70.0
         3        40        15            33.5            70.0
