# GHB package for  MODFLOW-NWT, generated by Flopy.
        50         0
        50         0 # stress period 1
         1        40         6            33.5          1000.0
         1        40         7            33.5          1000.0
         1        40         8            33.5          1000.0
         1        40         9            33.5          1000.0
         1        40        10            33.5          1000.0
         1        40        11            33.5          1000.0
         1        40        12            33.5          1000.0
         1        40        13            33.5          1000.0
         1        40        14            33.5          1000.0
         1        40        15            33.5          1000.0
         2        40         6            33.5          1000.0
         2        40         7            33.5          1000.0
         2        40         8            33.5          1000.0
         2        40         9            33.5          1000.0
         2        40        10            33.5          1000.0
         2        40        11            33.5          1000.0
         2        40        12            33.5          1000.0
         2        40        13            33.5          1000.0
         2        40        14            33.5          1000.0
         2        40        15            33.5          1000.0
         3        40         6            33.5          1000.0
         3        40         7            33.5          1000.0
         3        40         8            33.5          1000.0
         3        40         9            33.5          1000.0
         3        40        10            33.5          1000.0
         3        40        11            33.5          1000.0
         3        40        12            33.5          1000.0
         3        40        13            33.5          1000.0
         3        40        14            33.5          1000.0
         3        40        15            33.5          1000.0
         3         1         1            35.0          1000.0
         3         1         2            35.0          1000.0
         3         1         3            35.0          1000.0
         3         1         4            35.0          1000.0
         3         1         5            35.0          1000.0
         3         1         6            35.0          1000.0
         3         1         7            35.0          1000.0
         3         1         8            35.0          1000.0
         3         1         9            35.0          1000.0
         3         1        10            35.0          1000.0
         3         1        11            35.0          1000.0
         3         1        12            35.0          1000.0
         3         1        13            35.0          1000.0
         3         1        14            35.0          1000.0
         3         1        15            35.0          1000.0
         3         1        16            35.0          1000.0
         3         1        17            35.0          1000.0
         3         1        18            35.0          1000.0
         3         1        19            35.0          1000.0
         3         1        20            35.0          1000.0
        -1         0 # stress period 2
