# DRN package for  MODFLOW-NWT, generated by Flopy.
        10         0
        10         0 # stress period 1
         1        40         6            32.5         10000.0
         1        40         7            32.5         10000.0
         1        40         8            32.5         10000.0
         1        40         9            32.5         10000.0
         1        40        10            32.5         10000.0
         1        40        11            32.5         10000.0
         1        40        12            32.5         10000.0
         1        40        13            32.5         10000.0
         1        40        14            32.5         10000.0
         1        40        15            32.5         10000.0
        -1         0 # stress period 2
