pcf
* control data
             restart      regularisation
        72        33         2       722         6         0
         2         3              single               point         1         0         0          noobsreref
   2.000000E+01  -3.000000E+00   3.000000E-01   1.000000E-02        -7       999          lamforgive        noderforgive
   1.000000E+01   1.000000E+01   1.000000E-03         0         0
   1.000000E-01         1   1.100000E+00               noaui          nosenreuse        noboundscale
         0   1.000000E-02         3         3   1.000000E-02         3   0.000000E+00         1  -1.000000E+00
         0         0         0         0             jcosave          verboserec          jcosaveitn          reisaveitn          parsaveitn        noparsaverun
* parameter groups
pilotpt                 relative              1.0000000000E-02       0  switch                2.0000000000E+00       parabolic             1.0000000000E-05      5.0000000000E-01       smaller              
rch                     relative              1.0000000000E-02       0  switch                2.0000000000E+00       parabolic             1.0000000000E-05      5.0000000000E-01       smaller
* parameter data
rch1                   log                    factor                1.3822080000E-04      1.0000000000E-10      1.0000000000E+10       rch                   1.0000000000E+00      0.0000000000E+00      1          
rch2                   log                    factor                9.3585080000E-05      1.0000000000E-10      1.0000000000E+10       rch                   1.0000000000E+00      0.0000000000E+00      1          
hkpp1                  log                    factor                5.0000000000E+01      1.0000000000E-10      1.0000000000E+10       pilotpt               1.0000000000E+00      0.0000000000E+00      1          
hkpp2                  log                    factor                5.0000000000E+01      1.0000000000E-10      1.0000000000E+10       pilotpt               1.0000000000E+00      0.0000000000E+00      1          
hkpp3                  log                    factor                5.0000000000E+01      1.0000000000E-10      1.0000000000E+10       pilotpt               1.0000000000E+00      0.0000000000E+00      1          
hkpp4                  log                    factor                5.0000000000E+01      1.0000000000E-10      1.0000000000E+10       pilotpt               1.0000000000E+00      0.0000000000E+00      1          
hkpp5                  log                    factor                5.0000000000E+01      1.0000000000E-10      1.0000000000E+10       pilotpt               1.0000000000E+00      0.0000000000E+00      1          
hkpp6                  log                    factor                5.0000000000E+01      1.0000000000E-10      1.0000000000E+10       pilotpt               1.0000000000E+00      0.0000000000E+00      1          
hkpp7                  log                    factor                5.0000000000E+01      1.0000000000E-10      1.0000000000E+10       pilotpt               1.0000000000E+00      0.0000000000E+00      1          
hkpp8                  log                    factor                5.0000000000E+01      1.0000000000E-10      1.0000000000E+10       pilotpt               1.0000000000E+00      0.0000000000E+00      1          
hkpp9                  log                    factor                5.0000000000E+01      1.0000000000E-10      1.0000000000E+10       pilotpt               1.0000000000E+00      0.0000000000E+00      1          
hkpp10                 log                    factor                5.0000000000E+01      1.0000000000E-10      1.0000000000E+10       pilotpt               1.0000000000E+00      0.0000000000E+00      1          
hkpp11                 log                    factor                5.0000000000E+01      1.0000000000E-10      1.0000000000E+10       pilotpt               1.0000000000E+00      0.0000000000E+00      1          
hkpp12                 log                    factor                5.0000000000E+01      1.0000000000E-10      1.0000000000E+10       pilotpt               1.0000000000E+00      0.0000000000E+00      1          
hkpp13                 log                    factor                5.0000000000E+01      1.0000000000E-10      1.0000000000E+10       pilotpt               1.0000000000E+00      0.0000000000E+00      1          
hkpp14                 log                    factor                5.0000000000E+01      1.0000000000E-10      1.0000000000E+10       pilotpt               1.0000000000E+00      0.0000000000E+00      1          
hkpp15                 log                    factor                5.0000000000E+01      1.0000000000E-10      1.0000000000E+10       pilotpt               1.0000000000E+00      0.0000000000E+00      1          
hkpp16                 log                    factor                5.0000000000E+01      1.0000000000E-10      1.0000000000E+10       pilotpt               1.0000000000E+00      0.0000000000E+00      1          
hkpp17                 log                    factor                5.0000000000E+01      1.0000000000E-10      1.0000000000E+10       pilotpt               1.0000000000E+00      0.0000000000E+00      1          
hkpp18                 log                    factor                5.0000000000E+01      1.0000000000E-10      1.0000000000E+10       pilotpt               1.0000000000E+00      0.0000000000E+00      1          
hkpp19                 log                    factor                5.0000000000E+01      1.0000000000E-10      1.0000000000E+10       pilotpt               1.0000000000E+00      0.0000000000E+00      1          
hkpp20                 log                    factor                5.0000000000E+01      1.0000000000E-10      1.0000000000E+10       pilotpt               1.0000000000E+00      0.0000000000E+00      1          
hkpp21                 log                    factor                5.0000000000E+01      1.0000000000E-10      1.0000000000E+10       pilotpt               1.0000000000E+00      0.0000000000E+00      1          
hkpp22                 log                    factor                5.0000000000E+01      1.0000000000E-10      1.0000000000E+10       pilotpt               1.0000000000E+00      0.0000000000E+00      1          
hkpp23                 log                    factor                5.0000000000E+01      1.0000000000E-10      1.0000000000E+10       pilotpt               1.0000000000E+00      0.0000000000E+00      1          
hkpp24                 log                    factor                5.0000000000E+01      1.0000000000E-10      1.0000000000E+10       pilotpt               1.0000000000E+00      0.0000000000E+00      1          
hkpp25                 log                    factor                5.0000000000E+01      1.0000000000E-10      1.0000000000E+10       pilotpt               1.0000000000E+00      0.0000000000E+00      1          
hkpp26                 log                    factor                5.0000000000E+01      1.0000000000E-10      1.0000000000E+10       pilotpt               1.0000000000E+00      0.0000000000E+00      1          
hkpp27                 log                    factor                5.0000000000E+01      1.0000000000E-10      1.0000000000E+10       pilotpt               1.0000000000E+00      0.0000000000E+00      1          
hkpp28                 log                    factor                5.0000000000E+01      1.0000000000E-10      1.0000000000E+10       pilotpt               1.0000000000E+00      0.0000000000E+00      1          
hkpp29                 log                    factor                5.0000000000E+01      1.0000000000E-10      1.0000000000E+10       pilotpt               1.0000000000E+00      0.0000000000E+00      1          
hkpp30                 log                    factor                5.0000000000E+01      1.0000000000E-10      1.0000000000E+10       pilotpt               1.0000000000E+00      0.0000000000E+00      1          
hkpp31                 log                    factor                5.0000000000E+01      1.0000000000E-10      1.0000000000E+10       pilotpt               1.0000000000E+00      0.0000000000E+00      1          
hkpp32                 log                    factor                5.0000000000E+01      1.0000000000E-10      1.0000000000E+10       pilotpt               1.0000000000E+00      0.0000000000E+00      1          
hkpp33                 log                    factor                5.0000000000E+01      1.0000000000E-10      1.0000000000E+10       pilotpt               1.0000000000E+00      0.0000000000E+00      1          
hkpp34                 log                    factor                5.0000000000E+01      1.0000000000E-10      1.0000000000E+10       pilotpt               1.0000000000E+00      0.0000000000E+00      1          
hkpp35                 log                    factor                5.0000000000E+01      1.0000000000E-10      1.0000000000E+10       pilotpt               1.0000000000E+00      0.0000000000E+00      1          
hkpp36                 log                    factor                5.0000000000E+01      1.0000000000E-10      1.0000000000E+10       pilotpt               1.0000000000E+00      0.0000000000E+00      1          
hkpp37                 log                    factor                5.0000000000E+01      1.0000000000E-10      1.0000000000E+10       pilotpt               1.0000000000E+00      0.0000000000E+00      1          
hkpp38                 log                    factor                5.0000000000E+01      1.0000000000E-10      1.0000000000E+10       pilotpt               1.0000000000E+00      0.0000000000E+00      1          
hkpp39                 log                    factor                5.0000000000E+01      1.0000000000E-10      1.0000000000E+10       pilotpt               1.0000000000E+00      0.0000000000E+00      1          
hkpp40                 log                    factor                5.0000000000E+01      1.0000000000E-10      1.0000000000E+10       pilotpt               1.0000000000E+00      0.0000000000E+00      1          
hkpp41                 log                    factor                5.0000000000E+01      1.0000000000E-10      1.0000000000E+10       pilotpt               1.0000000000E+00      0.0000000000E+00      1          
hkpp42                 log                    factor                5.0000000000E+01      1.0000000000E-10      1.0000000000E+10       pilotpt               1.0000000000E+00      0.0000000000E+00      1          
hkpp43                 log                    factor                5.0000000000E+01      1.0000000000E-10      1.0000000000E+10       pilotpt               1.0000000000E+00      0.0000000000E+00      1          
hkpp44                 log                    factor                5.0000000000E+01      1.0000000000E-10      1.0000000000E+10       pilotpt               1.0000000000E+00      0.0000000000E+00      1          
hkpp45                 log                    factor                5.0000000000E+01      1.0000000000E-10      1.0000000000E+10       pilotpt               1.0000000000E+00      0.0000000000E+00      1          
hkpp46                 log                    factor                5.0000000000E+01      1.0000000000E-10      1.0000000000E+10       pilotpt               1.0000000000E+00      0.0000000000E+00      1          
hkpp47                 log                    factor                5.0000000000E+01      1.0000000000E-10      1.0000000000E+10       pilotpt               1.0000000000E+00      0.0000000000E+00      1          
hkpp48                 log                    factor                5.0000000000E+01      1.0000000000E-10      1.0000000000E+10       pilotpt               1.0000000000E+00      0.0000000000E+00      1          
hkpp49                 log                    factor                5.0000000000E+01      1.0000000000E-10      1.0000000000E+10       pilotpt               1.0000000000E+00      0.0000000000E+00      1          
hkpp50                 log                    factor                5.0000000000E+01      1.0000000000E-10      1.0000000000E+10       pilotpt               1.0000000000E+00      0.0000000000E+00      1          
hkpp51                 log                    factor                5.0000000000E+01      1.0000000000E-10      1.0000000000E+10       pilotpt               1.0000000000E+00      0.0000000000E+00      1          
hkpp52                 log                    factor                5.0000000000E+01      1.0000000000E-10      1.0000000000E+10       pilotpt               1.0000000000E+00      0.0000000000E+00      1          
hkpp53                 log                    factor                5.0000000000E+01      1.0000000000E-10      1.0000000000E+10       pilotpt               1.0000000000E+00      0.0000000000E+00      1          
hkpp54                 log                    factor                5.0000000000E+01      1.0000000000E-10      1.0000000000E+10       pilotpt               1.0000000000E+00      0.0000000000E+00      1          
hkpp55                 log                    factor                5.0000000000E+01      1.0000000000E-10      1.0000000000E+10       pilotpt               1.0000000000E+00      0.0000000000E+00      1          
hkpp56                 log                    factor                5.0000000000E+01      1.0000000000E-10      1.0000000000E+10       pilotpt               1.0000000000E+00      0.0000000000E+00      1          
hkpp57                 log                    factor                5.0000000000E+01      1.0000000000E-10      1.0000000000E+10       pilotpt               1.0000000000E+00      0.0000000000E+00      1          
hkpp58                 log                    factor                5.0000000000E+01      1.0000000000E-10      1.0000000000E+10       pilotpt               1.0000000000E+00      0.0000000000E+00      1          
hkpp59                 log                    factor                5.0000000000E+01      1.0000000000E-10      1.0000000000E+10       pilotpt               1.0000000000E+00      0.0000000000E+00      1          
hkpp60                 log                    factor                5.0000000000E+01      1.0000000000E-10      1.0000000000E+10       pilotpt               1.0000000000E+00      0.0000000000E+00      1          
hkpp61                 log                    factor                5.0000000000E+01      1.0000000000E-10      1.0000000000E+10       pilotpt               1.0000000000E+00      0.0000000000E+00      1          
hkpp62                 log                    factor                5.0000000000E+01      1.0000000000E-10      1.0000000000E+10       pilotpt               1.0000000000E+00      0.0000000000E+00      1          
hkpp63                 log                    factor                5.0000000000E+01      1.0000000000E-10      1.0000000000E+10       pilotpt               1.0000000000E+00      0.0000000000E+00      1          
hkpp64                 log                    factor                5.0000000000E+01      1.0000000000E-10      1.0000000000E+10       pilotpt               1.0000000000E+00      0.0000000000E+00      1          
hkpp65                 log                    factor                5.0000000000E+01      1.0000000000E-10      1.0000000000E+10       pilotpt               1.0000000000E+00      0.0000000000E+00      1          
hkpp66                 log                    factor                5.0000000000E+01      1.0000000000E-10      1.0000000000E+10       pilotpt               1.0000000000E+00      0.0000000000E+00      1          
hkpp67                 log                    factor                5.0000000000E+01      1.0000000000E-10      1.0000000000E+10       pilotpt               1.0000000000E+00      0.0000000000E+00      1          
hkpp68                 log                    factor                5.0000000000E+01      1.0000000000E-10      1.0000000000E+10       pilotpt               1.0000000000E+00      0.0000000000E+00      1          
hkpp69                 log                    factor                5.0000000000E+01      1.0000000000E-10      1.0000000000E+10       pilotpt               1.0000000000E+00      0.0000000000E+00      1          
hkpp70                 log                    factor                5.0000000000E+01      1.0000000000E-10      1.0000000000E+10       pilotpt               1.0000000000E+00      0.0000000000E+00      1
* observation groups
flux_fore            
travel_fore          
flux_cal             
head_cal             
head_fore            
regulhkpp            
* observation data
cr03c16               2.1600000000E+01      1.0000000000E+00       head_cal             
cr03c10               2.4100000000E+01      1.0000000000E+00       head_cal             
cr04c9                2.4500000000E+01      1.0000000000E+00       head_cal             
cr10c2                2.6500000000E+01      1.0000000000E+00       head_cal             
cr14c11               2.0300000000E+01      1.0000000000E+00       head_cal             
cr16c17               1.5400000000E+01      1.0000000000E+00       head_cal             
cr22c11               2.0100000000E+01      1.0000000000E+00       head_cal             
cr23c16               1.3900000000E+01      1.0000000000E+00       head_cal             
cr25c5                2.5200000000E+01      1.0000000000E+00       head_cal             
cr27c7                1.9700000000E+01      1.0000000000E+00       head_cal             
cr30c16               1.3000000000E+01      1.0000000000E+00       head_cal             
cr34c8                1.7000000000E+01      1.0000000000E+00       head_cal             
cr35c11               1.2700000000E+01      1.0000000000E+00       head_cal             
rivflux_cal           -3.2000000000E+03     1.0000000000E-02       flux_cal             
fr03c16               -9.9999900000E+05     0.0000000000E+00       head_fore            
fr03c10               -9.9999900000E+05     0.0000000000E+00       head_fore            
fr04c9                -9.9999900000E+05     0.0000000000E+00       head_fore            
fr10c2                -9.9999900000E+05     0.0000000000E+00       head_fore            
fr14c11               -9.9999900000E+05     0.0000000000E+00       head_fore            
fr16c17               -9.9999900000E+05     0.0000000000E+00       head_fore            
fr22c11               -9.9999900000E+05     0.0000000000E+00       head_fore            
fr23c16               -9.9999900000E+05     0.0000000000E+00       head_fore            
fr25c5                -9.9999900000E+05     0.0000000000E+00       head_fore            
fr27c7                -9.9999900000E+05     0.0000000000E+00       head_fore            
fr30c16               -9.9999900000E+05     0.0000000000E+00       head_fore            
fr34c8                -9.9999900000E+05     0.0000000000E+00       head_fore            
fr35c11               -9.9999900000E+05     0.0000000000E+00       head_fore            
fr02c02               -9.9999900000E+05     0.0000000000E+00       head_fore            
fr01c13               -9.9999900000E+05     0.0000000000E+00       head_fore            
fr09c15               -9.9999900000E+05     0.0000000000E+00       head_fore            
fr25c10               -9.9999900000E+05     0.0000000000E+00       head_fore            
rivflux_fore          -9.9999900000E+05     0.0000000000E+00       flux_fore            
travel_time           -9.9999900000E+05     0.0000000000E+00       travel_fore
* model command line
python run_model_pp.py
* model input/output
freyberg.rch.tpl freyberg.rch
points1.dat.tpl points1.dat
freyberg.heads.ins freyberg.heads
freyberg.rivflux.ins freyberg.rivflux
freyberg.travel.ins freyberg.travel
* prior information
ihkpp1                1.0 * log(hkpp2) - 1.0 * log(hkpp1) = 0.0   1.1273000000E+00     regulhkpp            
ihkpp2                1.0 * log(hkpp3) - 1.0 * log(hkpp1) = 0.0   8.8938000000E-01     regulhkpp            
ihkpp3                1.0 * log(hkpp3) - 1.0 * log(hkpp2) = 0.0   1.1273000000E+00     regulhkpp            
ihkpp4                1.0 * log(hkpp4) - 1.0 * log(hkpp1) = 0.0   8.0225000000E-01     regulhkpp            
ihkpp5                1.0 * log(hkpp4) - 1.0 * log(hkpp2) = 0.0   8.8938000000E-01     regulhkpp            
ihkpp6                1.0 * log(hkpp4) - 1.0 * log(hkpp3) = 0.0   1.1273000000E+00     regulhkpp            
ihkpp7                1.0 * log(hkpp5) - 1.0 * log(hkpp2) = 0.0   8.0225000000E-01     regulhkpp            
ihkpp8                1.0 * log(hkpp5) - 1.0 * log(hkpp3) = 0.0   8.8938000000E-01     regulhkpp            
ihkpp9                1.0 * log(hkpp5) - 1.0 * log(hkpp4) = 0.0   1.1273000000E+00     regulhkpp            
ihkpp10               1.0 * log(hkpp6) - 1.0 * log(hkpp3) = 0.0   8.0225000000E-01     regulhkpp            
ihkpp11               1.0 * log(hkpp6) - 1.0 * log(hkpp4) = 0.0   8.8938000000E-01     regulhkpp            
ihkpp12               1.0 * log(hkpp6) - 1.0 * log(hkpp5) = 0.0   1.1273000000E+00     regulhkpp            
ihkpp13               1.0 * log(hkpp7) - 1.0 * log(hkpp1) = 0.0   1.1273000000E+00     regulhkpp            
ihkpp14               1.0 * log(hkpp7) - 1.0 * log(hkpp2) = 0.0   9.9314000000E-01     regulhkpp            
ihkpp15               1.0 * log(hkpp7) - 1.0 * log(hkpp3) = 0.0   8.6189000000E-01     regulhkpp            
ihkpp16               1.0 * log(hkpp7) - 1.0 * log(hkpp4) = 0.0   7.9342000000E-01     regulhkpp            
ihkpp17               1.0 * log(hkpp8) - 1.0 * log(hkpp1) = 0.0   9.9314000000E-01     regulhkpp            
ihkpp18               1.0 * log(hkpp8) - 1.0 * log(hkpp2) = 0.0   1.1273000000E+00     regulhkpp            
ihkpp19               1.0 * log(hkpp8) - 1.0 * log(hkpp3) = 0.0   9.9314000000E-01     regulhkpp            
ihkpp20               1.0 * log(hkpp8) - 1.0 * log(hkpp4) = 0.0   8.6189000000E-01     regulhkpp            
ihkpp21               1.0 * log(hkpp8) - 1.0 * log(hkpp5) = 0.0   7.9342000000E-01     regulhkpp            
ihkpp22               1.0 * log(hkpp8) - 1.0 * log(hkpp7) = 0.0   1.1273000000E+00     regulhkpp            
ihkpp23               1.0 * log(hkpp9) - 1.0 * log(hkpp1) = 0.0   8.6189000000E-01     regulhkpp            
ihkpp24               1.0 * log(hkpp9) - 1.0 * log(hkpp2) = 0.0   9.9314000000E-01     regulhkpp            
ihkpp25               1.0 * log(hkpp9) - 1.0 * log(hkpp3) = 0.0   1.1273000000E+00     regulhkpp            
ihkpp26               1.0 * log(hkpp9) - 1.0 * log(hkpp4) = 0.0   9.9314000000E-01     regulhkpp            
ihkpp27               1.0 * log(hkpp9) - 1.0 * log(hkpp5) = 0.0   8.6189000000E-01     regulhkpp            
ihkpp28               1.0 * log(hkpp9) - 1.0 * log(hkpp6) = 0.0   7.9342000000E-01     regulhkpp            
ihkpp29               1.0 * log(hkpp9) - 1.0 * log(hkpp7) = 0.0   8.8938000000E-01     regulhkpp            
ihkpp30               1.0 * log(hkpp9) - 1.0 * log(hkpp8) = 0.0   1.1273000000E+00     regulhkpp            
ihkpp31               1.0 * log(hkpp10) - 1.0 * log(hkpp1) = 0.0  7.9342000000E-01     regulhkpp            
ihkpp32               1.0 * log(hkpp10) - 1.0 * log(hkpp2) = 0.0  8.6189000000E-01     regulhkpp            
ihkpp33               1.0 * log(hkpp10) - 1.0 * log(hkpp3) = 0.0  9.9314000000E-01     regulhkpp            
ihkpp34               1.0 * log(hkpp10) - 1.0 * log(hkpp4) = 0.0  1.1273000000E+00     regulhkpp            
ihkpp35               1.0 * log(hkpp10) - 1.0 * log(hkpp5) = 0.0  9.9314000000E-01     regulhkpp            
ihkpp36               1.0 * log(hkpp10) - 1.0 * log(hkpp6) = 0.0  8.6189000000E-01     regulhkpp            
ihkpp37               1.0 * log(hkpp10) - 1.0 * log(hkpp7) = 0.0  8.0225000000E-01     regulhkpp            
ihkpp38               1.0 * log(hkpp10) - 1.0 * log(hkpp8) = 0.0  8.8938000000E-01     regulhkpp            
ihkpp39               1.0 * log(hkpp10) - 1.0 * log(hkpp9) = 0.0  1.1273000000E+00     regulhkpp            
ihkpp40               1.0 * log(hkpp11) - 1.0 * log(hkpp2) = 0.0  7.9342000000E-01     regulhkpp            
ihkpp41               1.0 * log(hkpp11) - 1.0 * log(hkpp3) = 0.0  8.6189000000E-01     regulhkpp            
ihkpp42               1.0 * log(hkpp11) - 1.0 * log(hkpp4) = 0.0  9.9314000000E-01     regulhkpp            
ihkpp43               1.0 * log(hkpp11) - 1.0 * log(hkpp5) = 0.0  1.1273000000E+00     regulhkpp            
ihkpp44               1.0 * log(hkpp11) - 1.0 * log(hkpp6) = 0.0  9.9314000000E-01     regulhkpp            
ihkpp45               1.0 * log(hkpp11) - 1.0 * log(hkpp8) = 0.0  8.0225000000E-01     regulhkpp            
ihkpp46               1.0 * log(hkpp11) - 1.0 * log(hkpp9) = 0.0  8.8938000000E-01     regulhkpp            
ihkpp47               1.0 * log(hkpp11) - 1.0 * log(hkpp10) = 0.0 1.1273000000E+00     regulhkpp            
ihkpp48               1.0 * log(hkpp12) - 1.0 * log(hkpp3) = 0.0  7.9342000000E-01     regulhkpp            
ihkpp49               1.0 * log(hkpp12) - 1.0 * log(hkpp4) = 0.0  8.6189000000E-01     regulhkpp            
ihkpp50               1.0 * log(hkpp12) - 1.0 * log(hkpp5) = 0.0  9.9314000000E-01     regulhkpp            
ihkpp51               1.0 * log(hkpp12) - 1.0 * log(hkpp6) = 0.0  1.1273000000E+00     regulhkpp            
ihkpp52               1.0 * log(hkpp12) - 1.0 * log(hkpp9) = 0.0  8.0225000000E-01     regulhkpp            
ihkpp53               1.0 * log(hkpp12) - 1.0 * log(hkpp10) = 0.0 8.8938000000E-01     regulhkpp            
ihkpp54               1.0 * log(hkpp12) - 1.0 * log(hkpp11) = 0.0 1.1273000000E+00     regulhkpp            
ihkpp55               1.0 * log(hkpp13) - 1.0 * log(hkpp1) = 0.0  8.8938000000E-01     regulhkpp            
ihkpp56               1.0 * log(hkpp13) - 1.0 * log(hkpp2) = 0.0  8.6189000000E-01     regulhkpp            
ihkpp57               1.0 * log(hkpp13) - 1.0 * log(hkpp3) = 0.0  8.1278000000E-01     regulhkpp            
ihkpp58               1.0 * log(hkpp13) - 1.0 * log(hkpp7) = 0.0  1.1273000000E+00     regulhkpp            
ihkpp59               1.0 * log(hkpp13) - 1.0 * log(hkpp8) = 0.0  9.9314000000E-01     regulhkpp            
ihkpp60               1.0 * log(hkpp13) - 1.0 * log(hkpp9) = 0.0  8.6189000000E-01     regulhkpp            
ihkpp61               1.0 * log(hkpp13) - 1.0 * log(hkpp10) = 0.0 7.9342000000E-01     regulhkpp            
ihkpp62               1.0 * log(hkpp14) - 1.0 * log(hkpp1) = 0.0  8.1278000000E-01     regulhkpp            
ihkpp63               1.0 * log(hkpp14) - 1.0 * log(hkpp2) = 0.0  8.6189000000E-01     regulhkpp            
ihkpp64               1.0 * log(hkpp14) - 1.0 * log(hkpp3) = 0.0  8.8938000000E-01     regulhkpp            
ihkpp65               1.0 * log(hkpp14) - 1.0 * log(hkpp4) = 0.0  8.6189000000E-01     regulhkpp            
ihkpp66               1.0 * log(hkpp14) - 1.0 * log(hkpp5) = 0.0  8.1278000000E-01     regulhkpp            
ihkpp67               1.0 * log(hkpp14) - 1.0 * log(hkpp7) = 0.0  8.6189000000E-01     regulhkpp            
ihkpp68               1.0 * log(hkpp14) - 1.0 * log(hkpp8) = 0.0  9.9314000000E-01     regulhkpp            
ihkpp69               1.0 * log(hkpp14) - 1.0 * log(hkpp9) = 0.0  1.1273000000E+00     regulhkpp            
ihkpp70               1.0 * log(hkpp14) - 1.0 * log(hkpp10) = 0.0 9.9314000000E-01     regulhkpp            
ihkpp71               1.0 * log(hkpp14) - 1.0 * log(hkpp11) = 0.0 8.6189000000E-01     regulhkpp            
ihkpp72               1.0 * log(hkpp14) - 1.0 * log(hkpp13) = 0.0 8.8938000000E-01     regulhkpp            
ihkpp73               1.0 * log(hkpp15) - 1.0 * log(hkpp2) = 0.0  8.1278000000E-01     regulhkpp            
ihkpp74               1.0 * log(hkpp15) - 1.0 * log(hkpp3) = 0.0  8.6189000000E-01     regulhkpp            
ihkpp75               1.0 * log(hkpp15) - 1.0 * log(hkpp4) = 0.0  8.8938000000E-01     regulhkpp            
ihkpp76               1.0 * log(hkpp15) - 1.0 * log(hkpp5) = 0.0  8.6189000000E-01     regulhkpp            
ihkpp77               1.0 * log(hkpp15) - 1.0 * log(hkpp6) = 0.0  8.1278000000E-01     regulhkpp            
ihkpp78               1.0 * log(hkpp15) - 1.0 * log(hkpp7) = 0.0  7.9342000000E-01     regulhkpp            
ihkpp79               1.0 * log(hkpp15) - 1.0 * log(hkpp8) = 0.0  8.6189000000E-01     regulhkpp            
ihkpp80               1.0 * log(hkpp15) - 1.0 * log(hkpp9) = 0.0  9.9314000000E-01     regulhkpp            
ihkpp81               1.0 * log(hkpp15) - 1.0 * log(hkpp10) = 0.0 1.1273000000E+00     regulhkpp            
ihkpp82               1.0 * log(hkpp15) - 1.0 * log(hkpp11) = 0.0 9.9314000000E-01     regulhkpp            
ihkpp83               1.0 * log(hkpp15) - 1.0 * log(hkpp12) = 0.0 8.6189000000E-01     regulhkpp            
ihkpp84               1.0 * log(hkpp15) - 1.0 * log(hkpp13) = 0.0 8.0225000000E-01     regulhkpp            
ihkpp85               1.0 * log(hkpp15) - 1.0 * log(hkpp14) = 0.0 1.1273000000E+00     regulhkpp            
ihkpp86               1.0 * log(hkpp16) - 1.0 * log(hkpp3) = 0.0  8.1278000000E-01     regulhkpp            
ihkpp87               1.0 * log(hkpp16) - 1.0 * log(hkpp4) = 0.0  8.6189000000E-01     regulhkpp            
ihkpp88               1.0 * log(hkpp16) - 1.0 * log(hkpp5) = 0.0  8.8938000000E-01     regulhkpp            
ihkpp89               1.0 * log(hkpp16) - 1.0 * log(hkpp6) = 0.0  8.6189000000E-01     regulhkpp            
ihkpp90               1.0 * log(hkpp16) - 1.0 * log(hkpp8) = 0.0  7.9342000000E-01     regulhkpp            
ihkpp91               1.0 * log(hkpp16) - 1.0 * log(hkpp9) = 0.0  8.6189000000E-01     regulhkpp            
ihkpp92               1.0 * log(hkpp16) - 1.0 * log(hkpp10) = 0.0 9.9314000000E-01     regulhkpp            