MODPATH_PATHLINE_FILE 6 0                                                       
 1   0.0000000E+00
END HEADER
         1     1    -1     2   0.1826000E+04   0.6250000E+03   0.6375000E+04   0.3500000E+02    1   15    3  1  0.5000000E+00   0.5000000E+00   0.1000000E+01     1
         1     1    -1     3   0.1826000E+04   0.6250000E+03   0.6375000E+04   0.3500000E+02    1   15    3  1  0.5000000E+00   0.5000000E+00   0.1000000E+01     2
         1     1    -1     3   0.2051029E+04   0.6336041E+03   0.6250000E+04   0.3497541E+02    1   16    3  1  0.5344164E+00   0.1000000E+01   0.9990000E+00     2
         1     1    -1     3   0.2434692E+04   0.6317069E+03   0.6000000E+04   0.3497422E+02    1   17    3  1  0.5268276E+00   0.1000000E+01   0.9990000E+00     2
         1     1    -1     3   0.2765324E+04   0.6230266E+03   0.5750000E+04   0.3497192E+02    1   18    3  1  0.4921063E+00   0.1000000E+01   0.9990000E+00     2
         1     1    -1     3   0.3058337E+04   0.6264778E+03   0.5500000E+04   0.3497106E+02    1   19    3  1  0.5059111E+00   0.1000000E+01   0.9990000E+00     2
         1     1    -1     3   0.3306617E+04   0.6320837E+03   0.5250000E+04   0.3496899E+02    1   20    3  1  0.5283349E+00   0.1000000E+01   0.9990000E+00     2
         1     1    -1     3   0.3543017E+04   0.6425076E+03   0.5000000E+04   0.3497288E+02    1   21    3  1  0.5700303E+00   0.1000000E+01   0.9990000E+00     2
         1     1    -1     3   0.3734982E+04   0.6616279E+03   0.4750000E+04   0.3496973E+02    1   22    3  1  0.6465114E+00   0.1000000E+01   0.9990000E+00     2
         1     1    -1     3   0.3934005E+04   0.6909905E+03   0.4500000E+04   0.3497047E+02    1   23    3  1  0.7639618E+00   0.1000000E+01   0.9990000E+00     2
         1     1    -1     3   0.4075138E+04   0.7500000E+03   0.4320130E+04   0.3497364E+02    1   23    4  1  0.0000000E+00   0.2805217E+00   0.9990000E+00     2
         1     1    -1     3   0.4140504E+04   0.7843144E+03   0.4250000E+04   0.3497438E+02    1   24    4  1  0.1372577E+00   0.1000000E+01   0.9990000E+00     2
         1     1    -1     3   0.4399275E+04   0.9658668E+03   0.4000000E+04   0.3497781E+02    1   25    4  1  0.8634673E+00   0.1000000E+01   0.9990000E+00     2
         1     1    -1     3   0.4445471E+04   0.1000000E+04   0.3952907E+04   0.3497611E+02    1   25    5  1  0.0000000E+00   0.8116302E+00   0.9990000E+00     2
         1     1    -1     3   0.4734936E+04   0.1250000E+04   0.3753273E+04   0.3497024E+02    1   25    6  1  0.0000000E+00   0.1309204E-01   0.9990000E+00     2
         1     1    -1     3   0.4744886E+04   0.1258566E+04   0.3750000E+04   0.3496917E+02    1   26    6  1  0.3426327E-01   0.1000000E+01   0.9990000E+00     2
         1     1    -1     3   0.5034936E+04   0.1500000E+04   0.3656398E+04   0.3497116E+02    1   26    7  1  0.0000000E+00   0.6255936E+00   0.9990000E+00     2
         1     1    -1     3   0.5315674E+04   0.1750000E+04   0.3570241E+04   0.3496904E+02    1   26    8  1  0.0000000E+00   0.2809628E+00   0.9990000E+00     2
         1     1    -1     3   0.5543118E+04   0.1929910E+04   0.3500000E+04   0.3496950E+02    1   27    8  1  0.7196402E+00   0.1000000E+01   0.9990000E+00     2
         1     1    -1     3   0.5590841E+04   0.2000000E+04   0.3484641E+04   0.3496770E+02    1   27    9  1  0.0000000E+00   0.9385641E+00   0.9990000E+00     2
         1     1    -1     3   0.5910113E+04   0.2250000E+04   0.3331984E+04   0.3496841E+02    1   27   10  1  0.0000000E+00   0.3279367E+00   0.9990000E+00     2
         1     1    -1     3   0.6403012E+04   0.2469519E+04   0.3250000E+04   0.3496698E+02    1   28   10  1  0.8780747E+00   0.1000000E+01   0.9990000E+00     2
         1     1    -1     3   0.6460019E+04   0.2500000E+04   0.3241742E+04   0.3496587E+02    1   28   11  1  0.0000000E+00   0.9669666E+00   0.9990000E+00     2
         1     1    -1     3   0.6941816E+04   0.2750000E+04   0.3055294E+04   0.3496534E+02    1   28   12  1  0.0000000E+00   0.2211750E+00   0.9990000E+00     2
         1     1    -1     3   0.7254869E+04   0.2912326E+04   0.3000000E+04   0.3496504E+02    1   29   12  1  0.6493058E+00   0.1000000E+01   0.9990000E+00     2
         1     1    -1     3   0.7417729E+04   0.3000000E+04   0.2970223E+04   0.3496579E+02    1   29   13  1  0.0000000E+00   0.8808920E+00   0.9990000E+00     2
         1     1    -1     3   0.7863813E+04   0.3250000E+04   0.2879311E+04   0.3496544E+02    1   29   14  1  0.0000000E+00   0.5172423E+00   0.9990000E+00     2
         1     1    -1     3   0.8299121E+04   0.3500000E+04   0.2779688E+04   0.3496569E+02    1   29   15  1  0.0000000E+00   0.1187543E+00   0.9990000E+00     2
         1     1    -1     3   0.8438376E+04   0.3562880E+04   0.2750000E+04   0.3496502E+02    1   30   15  1  0.2515198E+00   0.1000000E+01   0.9990000E+00     2
         1     1    -1     3   0.9243630E+04   0.3638834E+04   0.2500000E+04   0.3496541E+02    1   31   15  1  0.5553377E+00   0.1000000E+01   0.9990000E+00     2
         1     1    -1     3   0.9974791E+04   0.3618095E+04   0.2250000E+04   0.3496557E+02    1   32   15  1  0.4723795E+00   0.1000000E+01   0.9990000E+00     2
         1     1    -1     3   0.1087173E+05   0.3614815E+04   0.2000000E+04   0.3496571E+02    1   33   15  1  0.4592601E+00   0.1000000E+01   0.9990000E+00     2
         1     1    -1     3   0.1176719E+05   0.3643656E+04   0.1750000E+04   0.3496569E+02    1   34   15  1  0.5746253E+00   0.1000000E+01   0.9990000E+00     2
         1     1    -1     3   0.1277442E+05   0.3646953E+04   0.1500000E+04   0.3496559E+02    1   35   15  1  0.5878119E+00   0.1000000E+01   0.9990000E+00     2
         1     1    -1     3   0.1393721E+05   0.3652576E+04   0.1250000E+04   0.3496525E+02    1   36   15  1  0.6103047E+00   0.1000000E+01   0.9990000E+00     2
         1     1    -1     3   0.1584316E+05   0.3649979E+04   0.1000000E+04   0.3496507E+02    1   37   15  1  0.5999136E+00   0.1000000E+01   0.9990000E+00     2
         1     1    -1     3   0.1678120E+05   0.3635134E+04   0.7500000E+03   0.3496537E+02    1   38   15  1  0.5405356E+00   0.1000000E+01   0.9990000E+00     2
         1     1    -1     3   0.1678120E+05   0.3635134E+04   0.7500000E+03   0.3496537E+02    1   38   15  1  0.5405356E+00   0.1000000E+01   0.9990000E+00     2
