# RCH for MODFLOW, generated by Flopy.
         3         0
         1        -1 # Stress period 1
CONSTANT    1.382208E-04                           #rech_1                        
         1        -1 # Stress period 2
CONSTANT    9.358508E-05                           #rech_2                        
         1        -1 # Stress period 3
CONSTANT    9.358508E-05                           #rech_3                        
