# LPF for MODFLOW, generated by Flopy.
        53    -1E+30         0  
         1
         0
   1.000000E+00
         0
         0
CONSTANT    5.947512E+00                           #hk                            
CONSTANT    1.000000E+00                           #vka                           
CONSTANT    1.000000E-04                           #ss                            
CONSTANT    2.500000E-01                           #sy                            
