pcf
* control data
             restart          estimation
         3        33         2         0         5         0
         2         3              single               point         1         0         0          noobsreref
   2.000000E+01  -3.000000E+00   3.000000E-01   1.000000E-02        -7       999          lamforgive        noderforgive
   1.000000E+01   1.000000E+01   1.000000E-03         0         0
   1.000000E-01         1   1.100000E+00               noaui          nosenreuse        noboundscale
         0   1.000000E-02         3         3   1.000000E-02         3   0.000000E+00         1  -1.000000E+00
         0         0         0         0             jcosave          verboserec          jcosaveitn          reisaveitn          parsaveitn        noparsaverun
* parameter groups
hk                      relative              1.0000000000E-02       0  switch                2.0000000000E+00       parabolic             1.0000000000E-05      5.0000000000E-01       smaller              
rch                     relative              1.0000000000E-02       0  switch                2.0000000000E+00       parabolic             1.0000000000E-05      5.0000000000E-01       smaller
* parameter data
rch1                   fixed                    factor                1.1000000000E-04      7.9000000000E-05      1.5500000000E-04       rch                   1.0000000000E+00      0.0000000000E+00      1          
rch2                   fixed                  factor                9.3585080000E-05      7.9000000000E-05      1.5500000000E-04       rch                   1.0000000000E+00      0.0000000000E+00      1          
hk1                    log                    factor                8.0000000000E+00      1.2500000000E+00      8.0000000000E+01       hk                    1.0000000000E+00      0.0000000000E+00      1
* observation groups
travel_fore          
head_fore            
flux_fore            
head_cal             
flux_cal             
* observation data
cr03c16               2.2186720000E+01      1.0000000000E+00       head_cal             
cr03c10               2.4085910000E+01      1.0000000000E+00       head_cal             
cr04c9                2.2333390000E+01      1.0000000000E+00       head_cal             
cr10c2                3.1834300000E+01      1.0000000000E+00       head_cal             
cr14c11               1.7728410000E+01      1.0000000000E+00       head_cal             
cr16c17               1.6566480000E+01      1.0000000000E+00       head_cal             
cr22c11               1.8285940000E+01      1.0000000000E+00       head_cal             
cr23c16               1.5208200000E+01      1.0000000000E+00       head_cal             
cr25c5                2.4242940000E+01      1.0000000000E+00       head_cal             
cr27c7                2.2748900000E+01      1.0000000000E+00       head_cal             
cr30c16               1.4736170000E+01      1.0000000000E+00       head_cal             
cr34c8                1.8619890000E+01      1.0000000000E+00       head_cal             
cr35c11               1.5619960000E+01      1.0000000000E+00       head_cal             
rivflux_cal           -3.6906880000E+03     0.0000000000E+00       flux_cal             
fr03c16               -9.9999900000E+05     0.0000000000E+00       head_fore            
fr03c10               -9.9999900000E+05     0.0000000000E+00       head_fore            
fr04c9                -9.9999900000E+05     0.0000000000E+00       head_fore            
fr10c2                -9.9999900000E+05     0.0000000000E+00       head_fore            
fr14c11               -9.9999900000E+05     0.0000000000E+00       head_fore            
fr16c17               -9.9999900000E+05     0.0000000000E+00       head_fore            
fr22c11               -9.9999900000E+05     0.0000000000E+00       head_fore            
fr23c16               -9.9999900000E+05     0.0000000000E+00       head_fore            
fr25c5                -9.9999900000E+05     0.0000000000E+00       head_fore            
fr27c7                -9.9999900000E+05     0.0000000000E+00       head_fore            
fr30c16               -9.9999900000E+05     0.0000000000E+00       head_fore            
fr34c8                -9.9999900000E+05     0.0000000000E+00       head_fore            
fr35c11               -9.9999900000E+05     0.0000000000E+00       head_fore            
fr02c02               -9.9999900000E+05     0.0000000000E+00       head_fore            
fr01c13               -9.9999900000E+05     0.0000000000E+00       head_fore            
fr09c15               -9.9999900000E+05     0.0000000000E+00       head_fore            
fr25c10               -9.9999900000E+05     0.0000000000E+00       head_fore            
rivflux_fore          -9.9999900000E+05     0.0000000000E+00       flux_fore            
travel_time           -9.9999900000E+05     0.0000000000E+00       travel_fore
* model command line
python run_model.py
* model input/output
freyberg.rch.tpl freyberg.rch
hk.ref.tpl hk.ref
freyberg.heads.ins freyberg.heads
freyberg.rivflux.ins freyberg.rivflux
freyberg.travel.ins freyberg.travel
++sweep_forgive(true)
++forecasts(rivflux_fore,travel_time,fr03c16,fr04c9)
++sweep_parameter_csv_file(grid.csv)
++LAMBDAS(0.01,0.1,1,10,100,1000,10000,100000)
