# LPF for MODFLOW-2005, generated by Flopy.
        53    -1E+30         0         0
         1
         0
         1
         0
         0
open/close hk.ref  1.0 (FREE)
CONSTANT    1.000000E+00                         #vka Layer 1
CONSTANT        1e-4                           STORAGE Layer   1
CONSTANT        0.25                           SPECIFIC YIELD Layer   1
