ptf ~
# Well file for MODFLOW, generated by Flopy.
         1         0
         1         0
        1         1        10  ~sp1_flux  ~
         1         0
        1         1        10  ~  sp2_flux~
