pcf
* control data
             restart          estimation
         3      2609         2         0        23         0
         2         4              single               point         1         0         0          noobsreref
   2.000000E+01  -3.000000E+00   3.000000E-01   1.000000E-02        -7       999          lamforgive        noderforgive
   1.000000E+01   1.000000E+01   1.000000E-03         0         0
   1.000000E-01         1   1.100000E+00               noaui          nosenreuse        noboundscale
        -1   1.000000E-02         3         3   1.000000E-02         3   0.000000E+00         1  -1.000000E+00
         0         0         0         0             jcosave          verboserec          jcosaveitn          reisaveitn          parsaveitn        noparsaverun
* singular value decomposition
         1
  10000000    1.000000E-06
1
* parameter groups
rch                     relative              1.0000000000E-02       0.0  switch                2.0000000000E+00       parabolic             1.0000000000E-05      5.0000000000E-01       smaller              
hk                      relative              1.0000000000E-02       0.0  switch                2.0000000000E+00       parabolic             1.0000000000E-05      5.0000000000E-01       smaller
* parameter data
rch_0                  log                    factor                8.0000000000E-01      7.5000000000E-01      1.2500000000E+00       rch                   1.0000000000E+00      0.0000000000E+00      1          
rch_1                  fixed                  factor                1.0000000000E+00      7.5000000000E-01      1.2500000000E+00       rch                   1.0000000000E+00      0.0000000000E+00      1          
hk                     log                    factor                1.2000000000E+01      3.0000000000E+00      1.2000000000E+01       hk                    1.0000000000E+00      0.0000000000E+00      1
* observation groups
calflux              
calhead              
flx_constan          
flx_in-out           
flx_percent          
flx_recharg          
flx_river_l          
flx_storage          
flx_total            
flx_wells            
foreflux             
forehead             
foretrav             
head                 
pothead              
vol_constan          
vol_in-out           
vol_percent          
vol_recharg          
vol_river_l          
vol_storage          
vol_total            
vol_wells            
* observation data
flx_constan_19700102  -4.0738390000E+02     0.0000000000E+00       flx_constan          
flx_in-out_19700102   -1.3731900000E+01     0.0000000000E+00       flx_in-out           
flx_percent_19700102  -2.2000000000E-01     0.0000000000E+00       flx_percent          
flx_recharg_19700102  6.0048000000E+03      0.0000000000E+00       flx_recharg          
flx_river_l_19700102  -3.7060270000E+03     1.0000000000E+01       calflux              
flx_storage_19700102  0.0000000000E+00      0.0000000000E+00       flx_storage          
flx_total_19700102    -1.3731930000E+01     0.0000000000E+00       flx_total            
flx_wells_19700102    -1.9051200000E+03     0.0000000000E+00       flx_wells            
flx_constan_19750101  -1.7966780000E+02     0.0000000000E+00       flx_constan          
flx_in-out_19750101   4.1016001000E-02      0.0000000000E+00       flx_in-out           
flx_percent_19750101  0.0000000000E+00      0.0000000000E+00       flx_percent          
flx_recharg_19750101  3.9093750000E+03      0.0000000000E+00       flx_recharg          
flx_river_l_19750101  -1.3938190000E+03     0.0000000000E+00       foreflux             
flx_storage_19750101  4.5552600000E+01      0.0000000000E+00       flx_storage          
flx_total_19750101    4.1015625000E-02      0.0000000000E+00       flx_total            
flx_wells_19750101    -2.3814000000E+03     0.0000000000E+00       flx_wells            
flx_constan_19750102  -1.7279920000E+02     0.0000000000E+00       flx_constan          
flx_in-out_19750102   1.1719000000E-02      0.0000000000E+00       flx_in-out           
flx_percent_19750102  0.0000000000E+00      0.0000000000E+00       flx_percent          
flx_recharg_19750102  3.9093750000E+03      0.0000000000E+00       flx_recharg          
flx_river_l_19750102  -1.3551650000E+03     0.0000000000E+00       flx_river_l          
flx_storage_19750102  0.0000000000E+00      0.0000000000E+00       flx_storage          
flx_total_19750102    1.1718750000E-02      0.0000000000E+00       flx_total            
flx_wells_19750102    -2.3814000000E+03     0.0000000000E+00       flx_wells            
cr03c16_19700101      4.5000000000E+01      0.0000000000E+00       head                 
cr03c16_19700102      1.8864677246E+01      5.0000000000E+00       calhead              
cr03c16_19750101      1.9472627640E+01      0.0000000000E+00       head                 
cr03c16_19750102      1.9470935822E+01      0.0000000000E+00       head                 
cr03c10_19700101      4.5000000000E+01      0.0000000000E+00       head                 
cr03c10_19700102      2.0920237065E+01      5.0000000000E+00       calhead              
cr03c10_19750101      2.1099609375E+01      0.0000000000E+00       head                 
cr03c10_19750102      2.1066350937E+01      0.0000000000E+00       head                 
cr04c9_19700101       4.5000000000E+01      0.0000000000E+00       head                 
cr04c9_19700102       2.3287188664E+01      5.0000000000E+00       calhead              
cr04c9_19750101       2.1405384064E+01      0.0000000000E+00       head                 
cr04c9_19750102       2.1364564896E+01      0.0000000000E+00       head                 
cr10c2_19700101       4.5000000000E+01      0.0000000000E+00       head                 
cr10c2_19700102       2.8141189659E+01      5.0000000000E+00       calhead              
cr10c2_19750101       2.5814115524E+01      0.0000000000E+00       head                 
cr10c2_19750102       2.5682920456E+01      0.0000000000E+00       head                 
cr14c11_19700101      4.5000000000E+01      0.0000000000E+00       head                 
cr14c11_19700102      2.0524638740E+01      5.0000000000E+00       calhead              
cr14c11_19750101      1.7746112823E+01      0.0000000000E+00       head                 
cr14c11_19750102      1.7730712891E+01      0.0000000000E+00       head                 
cr16c17_19700101      4.5000000000E+01      0.0000000000E+00       head                 
cr16c17_19700102      1.5522016913E+01      5.0000000000E+00       calhead              
cr16c17_19750101      1.7152860641E+01      0.0000000000E+00       head                 
cr16c17_19750102      1.7149892807E+01      0.0000000000E+00       head                 
cr22c11_19700101      4.5000000000E+01      0.0000000000E+00       head                 
cr22c11_19700102      1.9704904229E+01      5.0000000000E+00       calhead              
cr22c11_19750101      1.7000844955E+01      0.0000000000E+00       head                 
cr22c11_19750102      1.6957271576E+01      0.0000000000E+00       head                 
cr23c16_19700101      4.5000000000E+01      0.0000000000E+00       head                 
cr23c16_19700102      1.5644861823E+01      5.0000000000E+00       calhead              
cr23c16_19750101      1.5696760178E+01      0.0000000000E+00       head                 
cr23c16_19750102      1.5693627357E+01      0.0000000000E+00       head                 
cr25c5_19700101       4.5000000000E+01      0.0000000000E+00       head                 
cr25c5_19700102       2.1413267580E+01      5.0000000000E+00       calhead              
cr25c5_19750101       2.0709997177E+01      0.0000000000E+00       head                 
cr25c5_19750102       2.0588510513E+01      0.0000000000E+00       head                 
cr27c7_19700101       4.5000000000E+01      0.0000000000E+00       head                 
cr27c7_19700102       2.1684205966E+01      5.0000000000E+00       calhead              
cr27c7_19750101       1.9396169662E+01      0.0000000000E+00       head                 
cr27c7_19750102       1.9288833618E+01      0.0000000000E+00       head                 
cr30c16_19700101      4.5000000000E+01      0.0000000000E+00       head                 
cr30c16_19700102      1.2735359771E+01      5.0000000000E+00       calhead              
cr30c16_19750101      1.4607290268E+01      0.0000000000E+00       head                 
cr30c16_19750102      1.4602062225E+01      0.0000000000E+00       head                 
cr34c8_19700101       4.5000000000E+01      0.0000000000E+00       head                 
cr34c8_19700102       1.7708201772E+01      5.0000000000E+00       calhead              
cr34c8_19750101       1.7074665070E+01      0.0000000000E+00       head                 
cr34c8_19750102       1.7000095367E+01      0.0000000000E+00       head                 
cr35c11_19700101      4.5000000000E+01      0.0000000000E+00       head                 
cr35c11_19700102      1.4202748968E+01      5.0000000000E+00       calhead              
cr35c11_19750101      1.3599818230E+01      0.0000000000E+00       head                 
cr35c11_19750102      1.3561573029E+01      0.0000000000E+00       head                 
fr03c16_19700101      4.5000000000E+01      0.0000000000E+00       head                 
fr03c16_19700102      1.9751010895E+01      0.0000000000E+00       head                 
fr03c16_19750101      1.9472627640E+01      0.0000000000E+00       forehead             
fr03c16_19750102      1.9470935822E+01      0.0000000000E+00       head                 
fr03c10_19700101      4.5000000000E+01      0.0000000000E+00       head                 
fr03c10_19700102      2.2219573975E+01      0.0000000000E+00       head                 
fr03c10_19750101      2.1099609375E+01      0.0000000000E+00       forehead             
fr03c10_19750102      2.1066350937E+01      0.0000000000E+00       head                 
fr04c9_19700101       4.5000000000E+01      0.0000000000E+00       head                 
fr04c9_19700102       2.2750610352E+01      0.0000000000E+00       head                 
fr04c9_19750101       2.1405384064E+01      0.0000000000E+00       forehead             
fr04c9_19750102       2.1364564896E+01      0.0000000000E+00       head                 
fr10c2_19700101       4.5000000000E+01      0.0000000000E+00       head                 
fr10c2_19700102       2.8796232224E+01      0.0000000000E+00       head                 
fr10c2_19750101       2.5814115524E+01      0.0000000000E+00       forehead             
fr10c2_19750102       2.5682920456E+01      0.0000000000E+00       head                 
fr14c11_19700101      4.5000000000E+01      0.0000000000E+00       head                 
fr14c11_19700102      1.8471939087E+01      0.0000000000E+00       head                 
fr14c11_19750101      1.7746112823E+01      0.0000000000E+00       forehead             
fr14c11_19750102      1.7730712891E+01      0.0000000000E+00       head                 
fr16c17_19700101      4.5000000000E+01      0.0000000000E+00       head                 
fr16c17_19700102      1.7559207916E+01      0.0000000000E+00       head                 
fr16c17_19750101      1.7152860641E+01      0.0000000000E+00       forehead             
fr16c17_19750102      1.7149892807E+01      0.0000000000E+00       head                 
fr22c11_19700101      4.5000000000E+01      0.0000000000E+00       head                 
fr22c11_19700102      1.8268142700E+01      0.0000000000E+00       head                 
fr22c11_19750101      1.7000844955E+01      0.0000000000E+00       forehead             
fr22c11_19750102      1.6957271576E+01      0.0000000000E+00       head                 
fr23c16_19700101      4.5000000000E+01      0.0000000000E+00       head                 
fr23c16_19700102      1.6066556931E+01      0.0000000000E+00       head                 
fr23c16_19750101      1.5696760178E+01      0.0000000000E+00       forehead             
fr23c16_19750102      1.5693627357E+01      0.0000000000E+00       head                 
fr25c5_19700101       4.5000000000E+01      0.0000000000E+00       head                 
fr25c5_19700102       2.3484867096E+01      0.0000000000E+00       head                 
fr25c5_19750101       2.0709997177E+01      0.0000000000E+00       forehead             
fr25c5_19750102       2.0588510513E+01      0.0000000000E+00       head                 
fr27c7_19700101       4.5000000000E+01      0.0000000000E+00       head                 
fr27c7_19700102       2.1946020126E+01      0.0000000000E+00       head                 
fr27c7_19750101       1.9396169662E+01      0.0000000000E+00       forehead             
fr27c7_19750102       1.9288833618E+01      0.0000000000E+00       head                 
fr30c16_19700101      4.5000000000E+01      0.0000000000E+00       head                 
fr30c16_19700102      1.5148356438E+01      0.0000000000E+00       head                 
fr30c16_19750101      1.4607290268E+01      0.0000000000E+00       forehead             
fr30c16_19750102      1.4602062225E+01      0.0000000000E+00       head                 
fr34c8_19700101       4.5000000000E+01      0.0000000000E+00       head                 
fr34c8_19700102       1.9134883881E+01      0.0000000000E+00       head                 
fr34c8_19750101       1.7074665070E+01      0.0000000000E+00       forehead             
fr34c8_19750102       1.7000095367E+01      0.0000000000E+00       head                 
fr35c11_19700101      4.5000000000E+01      0.0000000000E+00       head                 
fr35c11_19700102      1.5023040771E+01      0.0000000000E+00       head                 
fr35c11_19750101      1.3599818230E+01      0.0000000000E+00       forehead             
fr35c11_19750102      1.3561573029E+01      0.0000000000E+00       head                 
fr02c02_19700101      4.5000000000E+01      0.0000000000E+00       head                 
fr02c02_19700102      2.7060319901E+01      0.0000000000E+00       head                 
fr02c02_19750101      2.4681461334E+01      0.0000000000E+00       forehead             
fr02c02_19750102      2.4598207474E+01      0.0000000000E+00       head                 
fr01c13_19700101      4.5000000000E+01      0.0000000000E+00       head                 
fr01c13_19700102      2.0525417328E+01      0.0000000000E+00       head                 
fr01c13_19750101      2.0208591461E+01      0.0000000000E+00       forehead             
fr01c13_19750102      2.0200035095E+01      0.0000000000E+00       head                 
fr09c15_19700101      4.5000000000E+01      0.0000000000E+00       head                 
fr09c15_19700102      1.7943899155E+01      0.0000000000E+00       head                 
fr09c15_19750101      1.7581069946E+01      0.0000000000E+00       forehead             
fr09c15_19750102      1.7579860687E+01      0.0000000000E+00       head                 
fr25c10_19700101      4.5000000000E+01      0.0000000000E+00       head                 
fr25c10_19700102      1.9231121063E+01      0.0000000000E+00       head                 
fr25c10_19750101      1.7426437378E+01      0.0000000000E+00       forehead             
fr25c10_19750102      1.7357866287E+01      0.0000000000E+00       head                 
pr01c01_19700101      4.5000000000E+01      0.0000000000E+00       head                 
pr01c01_19700102      2.7248521805E+01      0.0000000000E+00       pothead              
pr01c01_19750101      2.4848142624E+01      0.0000000000E+00       head                 
pr01c01_19750102      2.4764770508E+01      0.0000000000E+00       head                 
pr01c02_19700101      4.5000000000E+01      0.0000000000E+00       head                 
pr01c02_19700102      2.7016424179E+01      0.0000000000E+00       pothead              
pr01c02_19750101      2.4656599045E+01      0.0000000000E+00       head                 
pr01c02_19750102      2.4574922562E+01      0.0000000000E+00       head                 
pr01c03_19700101      4.5000000000E+01      0.0000000000E+00       head                 
pr01c03_19700102      2.6602771759E+01      0.0000000000E+00       pothead              
pr01c03_19750101      2.4304590225E+01      0.0000000000E+00       head                 
pr01c03_19750102      2.4225215912E+01      0.0000000000E+00       head                 
pr01c04_19700101      4.5000000000E+01      0.0000000000E+00       head                 
pr01c04_19700102      2.6215572357E+01      0.0000000000E+00       pothead              
pr01c04_19750101      2.4010091782E+01      0.0000000000E+00       head                 
pr01c04_19750102      2.3934520721E+01      0.0000000000E+00       head                 
pr01c05_19700101      4.5000000000E+01      0.0000000000E+00       head                 
pr01c05_19700102      2.5736295700E+01      0.0000000000E+00       pothead              
pr01c05_19750101      2.3648735046E+01      0.0000000000E+00       head                 
pr01c05_19750102      2.3578096390E+01      0.0000000000E+00       head                 
pr01c06_19700101      4.5000000000E+01      0.0000000000E+00       head                 
pr01c06_19700102      2.5118001938E+01      0.0000000000E+00       pothead              
pr01c06_19750101      2.3178516388E+01      0.0000000000E+00       head                 
pr01c06_19750102      2.3114027023E+01      0.0000000000E+00       head                 
pr01c07_19700101      4.5000000000E+01      0.0000000000E+00       head                 
pr01c07_19700102      2.4579841614E+01      0.0000000000E+00       pothead              
pr01c07_19750101      2.2794206619E+01      0.0000000000E+00       head                 
pr01c07_19750102      2.2735807419E+01      0.0000000000E+00       head                 
pr01c08_19700101      4.5000000000E+01      0.0000000000E+00       head                 
pr01c08_19700102      2.3998693466E+01      0.0000000000E+00       pothead              
pr01c08_19750101      2.2384687424E+01      0.0000000000E+00       head                 
pr01c08_19750102      2.2332975388E+01      0.0000000000E+00       head                 
pr01c09_19700101      4.5000000000E+01      0.0000000000E+00       head                 
pr01c09_19700102      2.3287481308E+01      0.0000000000E+00       pothead              
pr01c09_19750101      2.1890514374E+01      0.0000000000E+00       head                 
pr01c09_19750102      2.1846986771E+01      0.0000000000E+00       head                 
pr01c10_19700101      4.5000000000E+01      0.0000000000E+00       head                 
pr01c10_19700102      2.2598859787E+01      0.0000000000E+00       pothead              
pr01c10_19750101      2.1438383102E+01      0.0000000000E+00       head                 
pr01c10_19750102      2.1403228760E+01      0.0000000000E+00       head                 
pr01c11_19700101      4.5000000000E+01      0.0000000000E+00       head                 
pr01c11_19700102      2.1941543579E+01      0.0000000000E+00       pothead              
pr01c11_19750101      2.1028032303E+01      0.0000000000E+00       head                 
pr01c11_19750102      2.1001174927E+01      0.0000000000E+00       head                 
pr01c12_19700101      4.5000000000E+01      0.0000000000E+00       head                 
pr01c12_19700102      2.1260164261E+01      0.0000000000E+00       pothead              
pr01c12_19750101      2.0623544693E+01      0.0000000000E+00       head                 
pr01c12_19750102      2.0605482101E+01      0.0000000000E+00       head                 
pr01c13_19700101      4.5000000000E+01      0.0000000000E+00       head                 
pr01c13_19700102      2.0525417328E+01      0.0000000000E+00       pothead              
pr01c13_19750101      2.0208591461E+01      0.0000000000E+00       head                 
pr01c13_19750102      2.0200035095E+01      0.0000000000E+00       head                 
pr01c14_19700101      4.5000000000E+01      0.0000000000E+00       head                 
pr01c14_19700102      1.9895259857E+01      0.0000000000E+00       pothead              
pr01c14_19750101      1.9880498886E+01      0.0000000000E+00       head                 
pr01c14_19750102      1.9880207062E+01      0.0000000000E+00       head                 
pr01c15_19700101      4.5000000000E+01      0.0000000000E+00       head                 
pr01c15_19700102      1.9970897675E+01      0.0000000000E+00       pothead              
pr01c15_19750101      1.9834606171E+01      0.0000000000E+00       head                 
pr01c15_19750102      1.9833675385E+01      0.0000000000E+00       head                 
pr01c16_19700101      4.5000000000E+01      0.0000000000E+00       head                 
pr01c16_19700102      2.0053468704E+01      0.0000000000E+00       pothead              
pr01c16_19750101      1.9802312851E+01      0.0000000000E+00       head                 
pr01c16_19750102      1.9800733566E+01      0.0000000000E+00       head                 
pr01c17_19700101      4.5000000000E+01      0.0000000000E+00       head                 
pr01c17_19700102      2.0105348587E+01      0.0000000000E+00       pothead              
pr01c17_19750101      1.9768754959E+01      0.0000000000E+00       head                 
pr01c17_19750102      1.9766630173E+01      0.0000000000E+00       head                 
pr01c18_19700101      4.5000000000E+01      0.0000000000E+00       head                 
pr01c18_19700102      2.0135017395E+01      0.0000000000E+00       pothead              
pr01c18_19750101      1.9751756668E+01      0.0000000000E+00       head                 
pr01c18_19750102      1.9749305725E+01      0.0000000000E+00       head                 
pr02c01_19700101      4.5000000000E+01      0.0000000000E+00       head                 
pr02c01_19700102      2.7312408447E+01      0.0000000000E+00       pothead              
pr02c01_19750101      2.4895526886E+01      0.0000000000E+00       head                 
pr02c01_19750102      2.4810695648E+01      0.0000000000E+00       head                 
pr02c02_19700101      4.5000000000E+01      0.0000000000E+00       head                 
pr02c02_19700102      2.7060319901E+01      0.0000000000E+00       pothead              
pr02c02_19750101      2.4681461334E+01      0.0000000000E+00       head                 
pr02c02_19750102      2.4598207474E+01      0.0000000000E+00       head                 
pr02c03_19700101      4.5000000000E+01      0.0000000000E+00       head                 
pr02c03_19700102      2.6636644363E+01      0.0000000000E+00       pothead              
pr02c03_19750101      2.4323669434E+01      0.0000000000E+00       head                 
pr02c03_19750102      2.4243053436E+01      0.0000000000E+00       head                 
pr02c04_19700101      4.5000000000E+01      0.0000000000E+00       head                 
pr02c04_19700102      2.6264688492E+01      0.0000000000E+00       pothead              
pr02c04_19750101      2.4043842316E+01      0.0000000000E+00       head                 
pr02c04_19750102      2.3967077255E+01      0.0000000000E+00       head                 
pr02c05_19700101      4.5000000000E+01      0.0000000000E+00       head                 
pr02c05_19700102      2.5773916245E+01      0.0000000000E+00       pothead              
pr02c05_19750101      2.3672679901E+01      0.0000000000E+00       head                 
pr02c05_19750102      2.3601102829E+01      0.0000000000E+00       head                 
pr02c06_19700101      4.5000000000E+01      0.0000000000E+00       head                 
pr02c06_19700102      2.5116905212E+01      0.0000000000E+00       pothead              
pr02c06_19750101      2.3168802261E+01      0.0000000000E+00       head                 
pr02c06_19750102      2.3103792191E+01      0.0000000000E+00       head                 
pr02c07_19700101      4.5000000000E+01      0.0000000000E+00       head                 
pr02c07_19700102      2.4583965302E+01      0.0000000000E+00       pothead              
pr02c07_19750101      2.2787702560E+01      0.0000000000E+00       head                 
pr02c07_19750102      2.2728811264E+01      0.0000000000E+00       head                 
pr02c08_19700101      4.5000000000E+01      0.0000000000E+00       head                 
pr02c08_19700102      2.3930131912E+01      0.0000000000E+00       pothead              
pr02c08_19750101      2.2317060471E+01      0.0000000000E+00       head                 
pr02c08_19750102      2.2265451431E+01      0.0000000000E+00       head                 
pr02c09_19700101      4.5000000000E+01      0.0000000000E+00       head                 
pr02c09_19700102      2.3217784882E+01      0.0000000000E+00       pothead              
pr02c09_19750101      2.1820980072E+01      0.0000000000E+00       head                 
pr02c09_19750102      2.1777557373E+01      0.0000000000E+00       head                 
pr02c10_19700101      4.5000000000E+01      0.0000000000E+00       head                 
pr02c10_19700102      2.2459157944E+01      0.0000000000E+00       pothead              
pr02c10_19750101      2.1312589645E+01      0.0000000000E+00       head                 
pr02c10_19750102      2.1278110504E+01      0.0000000000E+00       head                 
pr02c11_19700101      4.5000000000E+01      0.0000000000E+00       head                 
pr02c11_19700102      2.1790889740E+01      0.0000000000E+00       pothead              
pr02c11_19750101      2.0890502930E+01      0.0000000000E+00       head                 
pr02c11_19750102      2.0864255905E+01      0.0000000000E+00       head                 
pr02c12_19700101      4.5000000000E+01      0.0000000000E+00       head                 
pr02c12_19700102      2.1062675476E+01      0.0000000000E+00       pothead              
pr02c12_19750101      2.0448406219E+01      0.0000000000E+00       head                 
pr02c12_19750102      2.0431177139E+01      0.0000000000E+00       head                 
pr02c13_19700101      4.5000000000E+01      0.0000000000E+00       head                 
pr02c13_19700102      2.0350891113E+01      0.0000000000E+00       pothead              
pr02c13_19750101      2.0036985397E+01      0.0000000000E+00       head                 
pr02c13_19750102      2.0028573990E+01      0.0000000000E+00       head                 
pr02c14_19700101      4.5000000000E+01      0.0000000000E+00       head                 
pr02c14_19700102      1.9678890228E+01      0.0000000000E+00       pothead              
pr02c14_19750101      1.9664598465E+01      0.0000000000E+00       head                 
pr02c14_19750102      1.9664314270E+01      0.0000000000E+00       head                 
pr02c15_19700101      4.5000000000E+01      0.0000000000E+00       head                 
pr02c15_19700102      1.9826206207E+01      0.0000000000E+00       pothead              
pr02c15_19750101      1.9681629181E+01      0.0000000000E+00       head                 
pr02c15_19750102      1.9680688858E+01      0.0000000000E+00       head                 
pr02c16_19700101      4.5000000000E+01      0.0000000000E+00       head                 
pr02c16_19700102      1.9918922424E+01      0.0000000000E+00       pothead              
pr02c16_19750101      1.9658527374E+01      0.0000000000E+00       head                 
pr02c16_19750102      1.9656873703E+01      0.0000000000E+00       head                 
pr02c17_19700101      4.5000000000E+01      0.0000000000E+00       head                 
pr02c17_19700102      1.9987602234E+01      0.0000000000E+00       pothead              
pr02c17_19750101      1.9642419815E+01      0.0000000000E+00       head                 
pr02c17_19750102      1.9640241623E+01      0.0000000000E+00       head                 
pr02c18_19700101      4.5000000000E+01      0.0000000000E+00       head                 
pr02c18_19700102      2.0033418655E+01      0.0000000000E+00       pothead              
pr02c18_19750101      1.9640823364E+01      0.0000000000E+00       head                 
pr02c18_19750102      1.9638328552E+01      0.0000000000E+00       head                 
pr03c01_19700101      4.5000000000E+01      0.0000000000E+00       head                 
pr03c01_19700102      2.7414091110E+01      0.0000000000E+00       pothead              
pr03c01_19750101      2.4964773178E+01      0.0000000000E+00       head                 
pr03c01_19750102      2.4877080917E+01      0.0000000000E+00       head                 
pr03c02_19700101      4.5000000000E+01      0.0000000000E+00       head                 
pr03c02_19700102      2.7147762299E+01      0.0000000000E+00       pothead              
pr03c02_19750101      2.4742473602E+01      0.0000000000E+00       head                 
pr03c02_19750102      2.4656595230E+01      0.0000000000E+00       head                 
pr03c03_19700101      4.5000000000E+01      0.0000000000E+00       head                 
pr03c03_19700102      2.6724952698E+01      0.0000000000E+00       pothead              
pr03c03_19750101      2.4384969711E+01      0.0000000000E+00       head                 
pr03c03_19750102      2.4302120209E+01      0.0000000000E+00       head                 
pr03c04_19700101      4.5000000000E+01      0.0000000000E+00       head                 
pr03c04_19700102      2.6321117401E+01      0.0000000000E+00       pothead              
pr03c04_19750101      2.4078737259E+01      0.0000000000E+00       head                 
pr03c04_19750102      2.4000310898E+01      0.0000000000E+00       head                 
pr03c05_19700101      4.5000000000E+01      0.0000000000E+00       head                 
pr03c05_19700102      2.5839908600E+01      0.0000000000E+00       pothead              
pr03c05_19750101      2.3717836380E+01      0.0000000000E+00       head                 
pr03c05_19750102      2.3644763947E+01      0.0000000000E+00       head                 
pr03c06_19700101      4.5000000000E+01      0.0000000000E+00       head                 