# MODFLOW2000 Layer Property Flow (LPF) Package
 53  -1.000000e+030 0
  0
  0
  1.000000e+000
 0
 0
        15   1.00000(10e20.12)                  -1
  1.000000000000e+00  1.000000000000e+00  1.000000000000e+00  1.000000000000e+00  1.000000000000e+00  1.000000000000e+00  1.000000000000e+00  1.000000000000e+00  1.000000000000e+00  1.000000000000e+00
        15   1.00000(10e20.12)                  -1
  2.500000000000e+00  2.500000000000e+00  2.500000000000e+00  2.500000000000e+00  2.500000000000e+00  2.500000000000e+00  2.500000000000e+00  2.500000000000e+00  2.500000000000e+00  2.500000000000e+00
