# MODFLOW2000 Evapotranspiration Package
PARAMETER  0
 1 0
 1 1 1 1
         0   1.00000(10e20.12)                  -1
         00.0000e+00(10e20.12)                  -1
         00.0000e+00(10e20.12)                  -1
 -1 1 1 -1
         00.0000e+00(10e20.12)                  -1
         00.0000e+00(10e20.12)                  -1
