# MODFLOW2000 Well Package
PARAMETER  0  0
 1 0
 1 0
 1 1 10 5.000000e-001
 1 0
 1 1 10 1.000000
