# MODFLOW2000 Discretization File
 1  1  10  2  4  2
 0
         0  10.00000(10E20.12)                   0
         0  10.00000(10E20.12)                   0
         0   1.00000(10E20.12)                  -1
         00.0000e+00(10E20.12)                  -1
  1.000000  1  1.000000  SS
  1.000000  1  1.000000  SS
