# MODFLOW2000 Drain Package
PARAMETER  0  0
 0 0
 0 0
 0 0
