# MODFLOW2005 Basic Package
#MODFLOW2000 Dataset Imported into Groundwater Vistas
#  
FREE SHOWPROGRESS 
         1         1(25I3)                      -1
 -1  1  1  1  1  1  1  1  1  1
 -999.990000
         0   1.00000(10e20.12)                  -1
