pcf
* control data
             restart          estimation
         3        33         2         0         5         0
         2         3              single               point         1         0         0          noobsreref
   2.000000E+01  -3.000000E+00   3.000000E-01   1.000000E-02        -7       999          lamforgive        noderforgive
   1.000000E+01   1.000000E+01   1.000000E-03         0         0
   1.000000E-01         1   1.100000E+00               noaui          nosenreuse        noboundscale
         0   1.000000E-02         3         3   1.000000E-02         3   0.000000E+00         1  -1.000000E+00
         0         0         0         0             jcosave          verboserec          jcosaveitn          reisaveitn          parsaveitn        noparsaverun
* parameter groups
hk                      relative              1.0000000000E-02       0  switch                2.0000000000E+00       parabolic             1.0000000000E-05      5.0000000000E-01       smaller              
rch                     relative              1.0000000000E-02       0  switch                2.0000000000E+00       parabolic             1.0000000000E-05      5.0000000000E-01       smaller
* parameter data
rch1                   fixed                  factor                1.3822080000E-04      7.9000000000E-05      1.5500000000E-04       rch                   1.0000000000E+00      0.0000000000E+00      1          
rch2                   fixed                  factor                9.3585080000E-05      7.9000000000E-05      1.5500000000E-04       rch                   1.0000000000E+00      0.0000000000E+00      1          
hk1                    log                    factor                8.0000000000E+00      1.2500000000E+00      8.0000000000E+01       hk                    1.0000000000E+00      0.0000000000E+00      1
* observation groups
flux_fore            
travel_fore          
flux_cal             
head_cal             
head_fore            
* observation data
cr03c16               2.1600000000E+01      1.0000000000E+00       head_cal             
cr03c10               2.4100000000E+01      1.0000000000E+00       head_cal             
cr04c9                2.4500000000E+01      1.0000000000E+00       head_cal             
cr10c2                2.6500000000E+01      1.0000000000E+00       head_cal             
cr14c11               2.0300000000E+01      1.0000000000E+00       head_cal             
cr16c17               1.5400000000E+01      1.0000000000E+00       head_cal             
cr22c11               2.0100000000E+01      1.0000000000E+00       head_cal             
cr23c16               1.3900000000E+01      1.0000000000E+00       head_cal             
cr25c5                2.5200000000E+01      1.0000000000E+00       head_cal             
cr27c7                1.9700000000E+01      1.0000000000E+00       head_cal             
cr30c16               1.3000000000E+01      1.0000000000E+00       head_cal             
cr34c8                1.7000000000E+01      1.0000000000E+00       head_cal             
cr35c11               1.2700000000E+01      1.0000000000E+00       head_cal             
rivflux_cal           -3.2000000000E+03     0.0000000000E+00       flux_cal             
fr03c16               -9.9999900000E+05     0.0000000000E+00       head_fore            
fr03c10               -9.9999900000E+05     0.0000000000E+00       head_fore            
fr04c9                -9.9999900000E+05     0.0000000000E+00       head_fore            
fr10c2                -9.9999900000E+05     0.0000000000E+00       head_fore            
fr14c11               -9.9999900000E+05     0.0000000000E+00       head_fore            
fr16c17               -9.9999900000E+05     0.0000000000E+00       head_fore            
fr22c11               -9.9999900000E+05     0.0000000000E+00       head_fore            
fr23c16               -9.9999900000E+05     0.0000000000E+00       head_fore            
fr25c5                -9.9999900000E+05     0.0000000000E+00       head_fore            
fr27c7                -9.9999900000E+05     0.0000000000E+00       head_fore            
fr30c16               -9.9999900000E+05     0.0000000000E+00       head_fore            
fr34c8                -9.9999900000E+05     0.0000000000E+00       head_fore            
fr35c11               -9.9999900000E+05     0.0000000000E+00       head_fore            
fr02c02               -9.9999900000E+05     0.0000000000E+00       head_fore            
fr01c13               -9.9999900000E+05     0.0000000000E+00       head_fore            
fr09c15               -9.9999900000E+05     0.0000000000E+00       head_fore            
fr25c10               -9.9999900000E+05     0.0000000000E+00       head_fore            
rivflux_fore          -9.9999900000E+05     0.0000000000E+00       flux_fore            
travel_time           -9.9999900000E+05     0.0000000000E+00       travel_fore
* model command line
python run_model.py
* model input/output
freyberg.rch.tpl freyberg.rch
hk.ref.tpl hk.ref
freyberg.heads.ins freyberg.heads
freyberg.rivflux.ins freyberg.rivflux
freyberg.travel.ins freyberg.travel
++forecasts(rivflux_fore,travel_time,fr03c16,fr04c9)
